version 3
run General-0-20221205-14:29:53-36648
attr configname General
attr datetime 20221205-14:29:53
attr datetimef 20221205-142953
attr experiment General
attr inifile omnetpp.ini
attr iterationvars ""
attr iterationvarsd ""
attr iterationvarsf ""
attr measurement ""
attr network Tictoc10
attr processid 36648
attr repetition 0
attr replication #0
attr resultdir results
attr runnumber 0
attr seedset 0
config network Tictoc10
config record-eventlog true

par Tictoc10.tic[0].out[0].channel typename "\"ned.DelayChannel\""
par Tictoc10.tic[0].out[0].channel disabled false
attr mutable ""
par Tictoc10.tic[0].out[0].channel delay 0.1s
attr mutable ""
attr unit s
par Tictoc10.tic[1].out[0].channel typename "\"ned.DelayChannel\""
par Tictoc10.tic[1].out[0].channel disabled false
attr mutable ""
par Tictoc10.tic[1].out[0].channel delay 0.1s
attr mutable ""
attr unit s
par Tictoc10.tic[1].out[1].channel typename "\"ned.DelayChannel\""
par Tictoc10.tic[1].out[1].channel disabled false
attr mutable ""
par Tictoc10.tic[1].out[1].channel delay 0.1s
attr mutable ""
attr unit s
par Tictoc10.tic[2].out[0].channel typename "\"ned.DelayChannel\""
par Tictoc10.tic[2].out[0].channel disabled false
attr mutable ""
par Tictoc10.tic[2].out[0].channel delay 0.1s
attr mutable ""
attr unit s
par Tictoc10.tic[1].out[2].channel typename "\"ned.DelayChannel\""
par Tictoc10.tic[1].out[2].channel disabled false
attr mutable ""
par Tictoc10.tic[1].out[2].channel delay 0.1s
attr mutable ""
attr unit s
par Tictoc10.tic[4].out[0].channel typename "\"ned.DelayChannel\""
par Tictoc10.tic[4].out[0].channel disabled false
attr mutable ""
par Tictoc10.tic[4].out[0].channel delay 0.1s
attr mutable ""
attr unit s
par Tictoc10.tic[3].out[0].channel typename "\"ned.DelayChannel\""
par Tictoc10.tic[3].out[0].channel disabled false
attr mutable ""
par Tictoc10.tic[3].out[0].channel delay 0.1s
attr mutable ""
attr unit s
par Tictoc10.tic[4].out[1].channel typename "\"ned.DelayChannel\""
par Tictoc10.tic[4].out[1].channel disabled false
attr mutable ""
par Tictoc10.tic[4].out[1].channel delay 0.1s
attr mutable ""
attr unit s
par Tictoc10.tic[4].out[2].channel typename "\"ned.DelayChannel\""
par Tictoc10.tic[4].out[2].channel disabled false
attr mutable ""
par Tictoc10.tic[4].out[2].channel delay 0.1s
attr mutable ""
attr unit s
par Tictoc10.tic[5].out[0].channel typename "\"ned.DelayChannel\""
par Tictoc10.tic[5].out[0].channel disabled false
attr mutable ""
par Tictoc10.tic[5].out[0].channel delay 0.1s
attr mutable ""
attr unit s
par Tictoc10.tic[0] typename "\"Txc10\""
par Tictoc10.tic[1] typename "\"Txc10\""
par Tictoc10.tic[2] typename "\"Txc10\""
par Tictoc10.tic[3] typename "\"Txc10\""
par Tictoc10.tic[4] typename "\"Txc10\""
par Tictoc10.tic[5] typename "\"Txc10\""
par Tictoc10 typename "\"Tictoc10\""

