version 3
run link_5_together-0-20221206-20:47:17-21864
attr configname link_5_together
attr datetime 20221206-20:47:17
attr datetimef 20221206-204717
attr experiment link_5_together
attr inifile omnetpp.ini
attr iterationvars ""
attr iterationvarsd ""
attr iterationvarsf ""
attr measurement ""
attr network Link5Together
attr processid 21864
attr repetition 0
attr replication #0
attr resultdir results
attr runnumber 0
attr seedset 0
config network Link5Together
config record-eventlog true

par Link5Together.tic[0].gate$o[0].channel typename "\"Link5Together.Channel\""
par Link5Together.tic[0].gate$o[0].channel disabled false
attr mutable ""
par Link5Together.tic[0].gate$o[0].channel delay 0.1s
attr mutable ""
attr unit s
par Link5Together.tic[1].gate$o[0].channel typename "\"Link5Together.Channel\""
par Link5Together.tic[1].gate$o[0].channel disabled false
attr mutable ""
par Link5Together.tic[1].gate$o[0].channel delay 0.1s
attr mutable ""
attr unit s
par Link5Together.tic[1].gate$o[1].channel typename "\"Link5Together.Channel\""
par Link5Together.tic[1].gate$o[1].channel disabled false
attr mutable ""
par Link5Together.tic[1].gate$o[1].channel delay 0.1s
attr mutable ""
attr unit s
par Link5Together.tic[2].gate$o[0].channel typename "\"Link5Together.Channel\""
par Link5Together.tic[2].gate$o[0].channel disabled false
attr mutable ""
par Link5Together.tic[2].gate$o[0].channel delay 0.1s
attr mutable ""
attr unit s
par Link5Together.tic[2].gate$o[1].channel typename "\"Link5Together.Channel\""
par Link5Together.tic[2].gate$o[1].channel disabled false
attr mutable ""
par Link5Together.tic[2].gate$o[1].channel delay 0.1s
attr mutable ""
attr unit s
par Link5Together.tic[3].gate$o[0].channel typename "\"Link5Together.Channel\""
par Link5Together.tic[3].gate$o[0].channel disabled false
attr mutable ""
par Link5Together.tic[3].gate$o[0].channel delay 0.1s
attr mutable ""
attr unit s
par Link5Together.tic[3].gate$o[1].channel typename "\"Link5Together.Channel\""
par Link5Together.tic[3].gate$o[1].channel disabled false
attr mutable ""
par Link5Together.tic[3].gate$o[1].channel delay 0.1s
attr mutable ""
attr unit s
par Link5Together.tic[4].gate$o[0].channel typename "\"Link5Together.Channel\""
par Link5Together.tic[4].gate$o[0].channel disabled false
attr mutable ""
par Link5Together.tic[4].gate$o[0].channel delay 0.1s
attr mutable ""
attr unit s
par Link5Together.tic[0] typename "\"Txc12\""
par Link5Together.tic[1] typename "\"Txc12\""
par Link5Together.tic[2] typename "\"Txc12\""
par Link5Together.tic[3] typename "\"Txc12\""
par Link5Together.tic[4] typename "\"Txc12\""
par Link5Together typename "\"Link5Together\""

