version 3
run Network_Test1-0-20221205-15:02:29-296
attr configname Network_Test1
attr datetime 20221205-15:02:29
attr datetimef 20221205-150229
attr experiment Network_Test1
attr inifile omnetpp.ini
attr iterationvars ""
attr iterationvarsd ""
attr iterationvarsf ""
attr measurement ""
attr network Network_Test1
attr processid 296
attr repetition 0
attr replication #0
attr resultdir results
attr runnumber 0
attr seedset 0
config network Network_Test1
config record-eventlog true

par Network_Test1.test_element[0].gate$o[0].channel typename "\"ned.DelayChannel\""
par Network_Test1.test_element[0].gate$o[0].channel disabled false
attr mutable ""
par Network_Test1.test_element[0].gate$o[0].channel delay 0.1s
attr mutable ""
attr unit s
par Network_Test1.test_element[1].gate$o[0].channel typename "\"ned.DelayChannel\""
par Network_Test1.test_element[1].gate$o[0].channel disabled false
attr mutable ""
par Network_Test1.test_element[1].gate$o[0].channel delay 0.1s
attr mutable ""
attr unit s
par Network_Test1.test_element[1].gate$o[1].channel typename "\"ned.DelayChannel\""
par Network_Test1.test_element[1].gate$o[1].channel disabled false
attr mutable ""
par Network_Test1.test_element[1].gate$o[1].channel delay 0.1s
attr mutable ""
attr unit s
par Network_Test1.test_element[2].gate$o[0].channel typename "\"ned.DelayChannel\""
par Network_Test1.test_element[2].gate$o[0].channel disabled false
attr mutable ""
par Network_Test1.test_element[2].gate$o[0].channel delay 0.1s
attr mutable ""
attr unit s
par Network_Test1.test_element[2].gate$o[1].channel typename "\"ned.DelayChannel\""
par Network_Test1.test_element[2].gate$o[1].channel disabled false
attr mutable ""
par Network_Test1.test_element[2].gate$o[1].channel delay 0.1s
attr mutable ""
attr unit s
par Network_Test1.test_element[3].gate$o[0].channel typename "\"ned.DelayChannel\""
par Network_Test1.test_element[3].gate$o[0].channel disabled false
attr mutable ""
par Network_Test1.test_element[3].gate$o[0].channel delay 0.1s
attr mutable ""
attr unit s
par Network_Test1.test_element[3].gate$o[1].channel typename "\"ned.DelayChannel\""
par Network_Test1.test_element[3].gate$o[1].channel disabled false
attr mutable ""
par Network_Test1.test_element[3].gate$o[1].channel delay 0.1s
attr mutable ""
attr unit s
par Network_Test1.test_element[4].gate$o[0].channel typename "\"ned.DelayChannel\""
par Network_Test1.test_element[4].gate$o[0].channel disabled false
attr mutable ""
par Network_Test1.test_element[4].gate$o[0].channel delay 0.1s
attr mutable ""
attr unit s
par Network_Test1.test_element[0] typename "\"test1\""
par Network_Test1.test_element[1] typename "\"test1\""
par Network_Test1.test_element[2] typename "\"test1\""
par Network_Test1.test_element[3] typename "\"test1\""
par Network_Test1.test_element[4] typename "\"test1\""
par Network_Test1 typename "\"Network_Test1\""

