version 2
run General-0-20221225-22:48:42-23740
attr configname General
attr datetime 20221225-22:48:42
attr experiment General
attr inifile omnetpp.ini
attr iterationvars ""
attr iterationvarsf ""
attr measurement ""
attr network test_eth
attr processid 23740
attr repetition 0
attr replication #0
attr resultdir results
attr runnumber 0
attr seedset 0
param **.scheduler.tick 80ns
param **.scheduler.oscillator.max_drift 200ppm
param **.scheduler.oscillator.drift_change uniform(-50ppm,50ppm)
param **.precission 500ns
param **.IP_1.phy[*].mac.address "\"0A-00-00-00-00-01\""
param **.IP_1.numApps 1
param **.IP_1.app[0].typename "\"BGTrafficSourceApp\""
param **.IP_1.app[0].destAddress "\"0A-00-00-00-00-10\""
param **.IP_1.app[0].payload intWithUnit(1500Byte)
param **.IP_1.app[0].sendInterval 50ms
param **.IP_1.app[0].priority 1
param **.IP_2.phy[*].mac.address "\"0A-00-00-00-00-02\""
param **.IP_2.numApps 2
param **.IP_2.app[0].typename "\"BGTrafficSinkApp\""
param **.IP_2.app[0].srcAddress "\"0A-00-00-00-00-10\""
param **.IP_2.app[1].typename "\"BGTrafficSourceApp\""
param **.IP_2.app[1].destAddress "\"0A-00-00-00-00-10\""
param **.IP_2.app[1].payload intWithUnit(1500Byte)
param **.IP_2.app[1].sendInterval 400ms
param **.IP_2.app[1].priority 2
param **.IP_2.bgIn.destination_gates "\"app[0].in\""
param **.IP_zentral.phy[*].mac.address "\"0A-00-00-00-00-10\""
param **.IP_zentral.numApps 3
param **.IP_zentral.app[0].typename "\"BGTrafficSinkApp\""
param **.IP_zentral.app[0].srcAddress "\"0A-00-00-00-00-01\""
param **.IP_zentral.app[1].typename "\"BGTrafficSinkApp\""
param **.IP_zentral.app[1].srcAddress "\"0A-00-00-00-00-02\""
param **.IP_zentral.bgIn.destination_gates "\"app[0].in, app[1].in\""
param **.IP_zentral.app[2].typename "\"BGTrafficSourceApp\""
param **.IP_zentral.app[2].destAddress "\"0A-00-00-00-00-02\""
param **.IP_zentral.app[2].payload intWithUnit(1500Byte)
param **.IP_zentral.app[2].sendInterval 200ms
param **.IP_zentral.app[2].priority 1
param **.switch1.phy[0].untaggedVID 0
param **.switch1.phy[0].taggedVIDs "\"1\""
param **.switch1.phy[1].untaggedVID 1
param **.switch1.phy[1].taggedVIDs "\"0,1\""
param **.switch1.phy[2].untaggedVID 1
param **.switch1.phy[2].taggedVIDs "\"0,1\""

scalar test_eth.switch1.ethg$o[0].channel packetsDiscarded:count 0
attr interpolationmode none
attr source constant1(messageDiscarded)
scalar test_eth.switch1.ethg$o[0].channel utilization:last 0.48399310167106
attr source timeavg(channelBusy)
scalar test_eth.switch1.ethg$o[0].channel packets:count 2
attr interpolationmode none
attr source constant1(messageSent)
scalar test_eth.switch1.ethg$o[0].channel packetBytes:sum 3052
attr interpolationmode none
attr source packetBytes(messageSent)
attr unit B
scalar test_eth.switch1.ethg$o[0].channel throughput:last 63851042.129763
attr source sumPerDuration(packetBits(messageSent))
attr unit bps
scalar test_eth.switch1.ethg$o[1].channel packetsDiscarded:count 0
attr interpolationmode none
attr source constant1(messageDiscarded)
scalar test_eth.switch1.ethg$o[1].channel utilization:last 0.0012200307401176
attr source timeavg(channelBusy)
scalar test_eth.switch1.ethg$o[1].channel packets:count 4
attr interpolationmode none
attr source constant1(messageSent)
scalar test_eth.switch1.ethg$o[1].channel packetBytes:sum 6104
attr interpolationmode none
attr source packetBytes(messageSent)
attr unit B
scalar test_eth.switch1.ethg$o[1].channel throughput:last 122040.2972403
attr source sumPerDuration(packetBits(messageSent))
attr unit bps
scalar test_eth.switch1.ethg$o[2].channel packetsDiscarded:count 0
attr interpolationmode none
attr source constant1(messageDiscarded)
scalar test_eth.switch1.ethg$o[2].channel utilization:last 0.0036589674311786
attr source timeavg(channelBusy)
scalar test_eth.switch1.ethg$o[2].channel packets:count 12
attr interpolationmode none
attr source constant1(messageSent)
scalar test_eth.switch1.ethg$o[2].channel packetBytes:sum 18312
attr interpolationmode none
attr source packetBytes(messageSent)
attr unit B
scalar test_eth.switch1.ethg$o[2].channel throughput:last 366008.34416877
attr source sumPerDuration(packetBits(messageSent))
attr unit bps
scalar test_eth.IP_zentral.ethg$o.channel packetsDiscarded:count 0
attr interpolationmode none
attr source constant1(messageDiscarded)
scalar test_eth.IP_zentral.ethg$o.channel utilization:last 0.001525534406899
attr source timeavg(channelBusy)
scalar test_eth.IP_zentral.ethg$o.channel packets:count 5
attr interpolationmode none
attr source constant1(messageSent)
scalar test_eth.IP_zentral.ethg$o.channel packetBytes:sum 7630
attr interpolationmode none
attr source packetBytes(messageSent)
attr unit B
scalar test_eth.IP_zentral.ethg$o.channel throughput:last 152600
attr source sumPerDuration(packetBits(messageSent))
attr unit bps
scalar test_eth.IP_1.ethg$o.channel packetsDiscarded:count 0
attr interpolationmode none
attr source constant1(messageDiscarded)
scalar test_eth.IP_1.ethg$o.channel utilization:last 0.0027459619324182
attr source timeavg(channelBusy)
scalar test_eth.IP_1.ethg$o.channel packets:count 9
attr interpolationmode none
attr source constant1(messageSent)
scalar test_eth.IP_1.ethg$o.channel packetBytes:sum 13734
attr interpolationmode none
attr source packetBytes(messageSent)
attr unit B
scalar test_eth.IP_1.ethg$o.channel throughput:last 274680
attr source sumPerDuration(packetBits(messageSent))
attr unit bps
scalar test_eth.IP_2.ethg$o.channel packetsDiscarded:count 0
attr interpolationmode none
attr source constant1(messageDiscarded)
scalar test_eth.IP_2.ethg$o.channel utilization:last 0.00091532064413941
attr source timeavg(channelBusy)
scalar test_eth.IP_2.ethg$o.channel packets:count 3
attr interpolationmode none
attr source constant1(messageSent)
scalar test_eth.IP_2.ethg$o.channel packetBytes:sum 4578
attr interpolationmode none
attr source packetBytes(messageSent)
attr unit B
scalar test_eth.IP_2.ethg$o.channel throughput:last 91560
attr source sumPerDuration(packetBits(messageSent))
attr unit bps
scalar test_eth.switch1.beswitch.ifOut[0].channel messagesDiscarded:count 0
attr interpolationmode none
attr source constant1(messageDiscarded)
scalar test_eth.switch1.beswitch.ifOut[0].channel messages:count 2
attr interpolationmode none
attr source constant1(messageSent)
scalar test_eth.switch1.beswitch.ifOut[1].channel messagesDiscarded:count 0
attr interpolationmode none
attr source constant1(messageDiscarded)
scalar test_eth.switch1.beswitch.ifOut[1].channel messages:count 4
attr interpolationmode none
attr source constant1(messageSent)
scalar test_eth.switch1.beswitch.ifOut[2].channel messagesDiscarded:count 0
attr interpolationmode none
attr source constant1(messageDiscarded)
scalar test_eth.switch1.beswitch.ifOut[2].channel messages:count 12
attr interpolationmode none
attr source constant1(messageSent)
scalar test_eth.switch1.phy[0].upperLayerOut.channel messagesDiscarded:count 0
attr interpolationmode none
attr source constant1(messageDiscarded)
scalar test_eth.switch1.phy[0].upperLayerOut.channel messages:count 9
attr interpolationmode none
attr source constant1(messageSent)
scalar test_eth.switch1.phy[1].upperLayerOut.channel messagesDiscarded:count 0
attr interpolationmode none
attr source constant1(messageDiscarded)
scalar test_eth.switch1.phy[1].upperLayerOut.channel messages:count 3
attr interpolationmode none
attr source constant1(messageSent)
scalar test_eth.switch1.phy[2].upperLayerOut.channel messagesDiscarded:count 0
attr interpolationmode none
attr source constant1(messageDiscarded)
scalar test_eth.switch1.phy[2].upperLayerOut.channel messages:count 5
attr interpolationmode none
attr source constant1(messageSent)
scalar test_eth.switch1.beswitch "processed frames" 17
scalar test_eth.switch1.beswitch "discarded frames" 0
statistic test_eth.switch1.phy[0].shaper q7QueueSize:stats
field count 1
field mean 0
field stddev nan
field min 0
field max 0
field sum 0
field sqrsum 0
attr interpolationmode sample-hold
attr title "Q-Queue Size (q7QueueSize)"
attr unit B
statistic test_eth.switch1.phy[0].shaper q7QueueLength:stats
field count 1
field mean 0
field stddev nan
field min 0
field max 0
field sum 0
field sqrsum 0
attr interpolationmode sample-hold
attr title "Q-Queue Length (q7QueueLength)"
attr unit packets
statistic test_eth.switch1.phy[0].shaper q6QueueSize:stats
field count 1
field mean 0
field stddev nan
field min 0
field max 0
field sum 0
field sqrsum 0
attr interpolationmode sample-hold
attr title "Q-Queue Size (q6QueueSize)"
attr unit B
statistic test_eth.switch1.phy[0].shaper q6QueueLength:stats
field count 1
field mean 0
field stddev nan
field min 0
field max 0
field sum 0
field sqrsum 0
attr interpolationmode sample-hold
attr title "Q-Queue Length (q6QueueLength)"
attr unit packets
statistic test_eth.switch1.phy[0].shaper q5QueueSize:stats
field count 1
field mean 0
field stddev nan
field min 0
field max 0
field sum 0
field sqrsum 0
attr interpolationmode sample-hold
attr title "Q-Queue Size (q5QueueSize)"
attr unit B
statistic test_eth.switch1.phy[0].shaper q5QueueLength:stats
field count 1
field mean 0
field stddev nan
field min 0
field max 0
field sum 0
field sqrsum 0
attr interpolationmode sample-hold
attr title "Q-Queue Length (q5QueueLength)"
attr unit packets
statistic test_eth.switch1.phy[0].shaper q4QueueSize:stats
field count 1
field mean 0
field stddev nan
field min 0
field max 0
field sum 0
field sqrsum 0
attr interpolationmode sample-hold
attr title "Q-Queue Size (q4QueueSize)"
attr unit B
statistic test_eth.switch1.phy[0].shaper q4QueueLength:stats
field count 1
field mean 0
field stddev nan
field min 0
field max 0
field sum 0
field sqrsum 0
attr interpolationmode sample-hold
attr title "Q-Queue Length (q4QueueLength)"
attr unit packets
statistic test_eth.switch1.phy[0].shaper q3QueueSize:stats
field count 1
field mean 0
field stddev nan
field min 0
field max 0
field sum 0
field sqrsum 0
attr interpolationmode sample-hold
attr title "Q-Queue Size (q3QueueSize)"
attr unit B
statistic test_eth.switch1.phy[0].shaper q3QueueLength:stats
field count 1
field mean 0
field stddev nan
field min 0
field max 0
field sum 0
field sqrsum 0
attr interpolationmode sample-hold
attr title "Q-Queue Length (q3QueueLength)"
attr unit packets
statistic test_eth.switch1.phy[0].shaper q2QueueSize:stats
field count 1
field mean 0
field stddev nan
field min 0
field max 0
field sum 0
field sqrsum 0
attr interpolationmode sample-hold
attr title "Q-Queue Size (q2QueueSize)"
attr unit B
statistic test_eth.switch1.phy[0].shaper q2QueueLength:stats
field count 1
field mean 0
field stddev nan
field min 0
field max 0
field sum 0
field sqrsum 0
attr interpolationmode sample-hold
attr title "Q-Queue Length (q2QueueLength)"
attr unit packets
statistic test_eth.switch1.phy[0].shaper q1QueueSize:stats
field count 1
field mean 0
field stddev nan
field min 0
field max 0
field sum 0
field sqrsum 0
attr interpolationmode sample-hold
attr title "Q-Queue Size (q1QueueSize)"
attr unit B
statistic test_eth.switch1.phy[0].shaper q1QueueLength:stats
field count 1
field mean 0
field stddev nan
field min 0
field max 0
field sum 0
field sqrsum 0
attr interpolationmode sample-hold
attr title "Q-Queue Length (q1QueueLength)"
attr unit packets
statistic test_eth.switch1.phy[0].shaper q0QueueSize:stats
field count 1
field mean 0
field stddev nan
field min 0
field max 0
field sum 0
field sqrsum 0
attr interpolationmode sample-hold
attr title "Q-Queue Size (q0QueueSize)"
attr unit B
statistic test_eth.switch1.phy[0].shaper q0QueueLength:stats
field count 1
field mean 0
field stddev nan
field min 0
field max 0
field sum 0
field sqrsum 0
attr interpolationmode sample-hold
attr title "Q-Queue Length (q0QueueLength)"
attr unit packets
statistic test_eth.switch1.phy[0].inControl rxLatency:stats
field count 9
field mean 0.00012213
field stddev 0
field min 0.00012213
field max 0.00012213
field sum 0.00109917
field sqrsum 1.342416321e-007
attr interpolationmode none
attr source messageAge(rxPk)
attr title "End-to-end latency (received), stats"
attr unit s
statistic test_eth.switch1.phy[0].inControl rxLatency:histogram
field count 9
field mean 0.00012213
field stddev 0
field min 0.00012213
field max 0.00012213
field sum 0.00109917
field sqrsum 1.342416321e-007
attr interpolationmode none
attr source messageAge(rxPk)
attr title "End-to-end latency (received), histogram"
attr unit s
bin	-inf	0
bin	0	9
bin	0.01	0
bin	0.02	0
bin	0.03	0
bin	0.04	0
bin	0.05	0
bin	0.06	0
bin	0.07	0
bin	0.08	0
bin	0.09	0
bin	0.1	0
bin	0.11	0
bin	0.12	0
bin	0.13	0
bin	0.14	0
bin	0.15	0
bin	0.16	0
bin	0.17	0
bin	0.18	0
bin	0.19	0
bin	0.2	0
bin	0.21	0
bin	0.22	0
bin	0.23	0
bin	0.24	0
bin	0.25	0
bin	0.26	0
bin	0.27	0
bin	0.28	0
bin	0.29	0
bin	0.3	0
bin	0.31	0
bin	0.32	0
bin	0.33	0
bin	0.34	0
bin	0.35	0
bin	0.36	0
bin	0.37	0
bin	0.38	0
bin	0.39	0
bin	0.4	0
bin	0.41	0
bin	0.42	0
bin	0.43	0
bin	0.44	0
bin	0.45	0
bin	0.46	0
bin	0.47	0
bin	0.48	0
bin	0.49	0
bin	0.5	0
bin	0.51	0
scalar test_eth.switch1.phy[0].mac "simulated time" 0.400320112901
scalar test_eth.switch1.phy[0].mac full-duplex 1
scalar test_eth.switch1.phy[0].mac "frames/sec sent" 4.9960017884353
scalar test_eth.switch1.phy[0].mac "frames/sec rcvd" 22.482008047959
scalar test_eth.switch1.phy[0].mac "bits/sec sent" 60671.445718758
scalar test_eth.switch1.phy[0].mac "bits/sec rcvd" 273021.50573441
scalar test_eth.switch1.phy[0].mac "rx channel idle (%)" 99.725539645751
scalar test_eth.switch1.phy[0].mac "rx channel utilization (%)" 0.27446035424948
scalar test_eth.switch1.phy[0].mac rxPkFromHL:count 2
attr interpolationmode none
attr source rxPkFromHL
attr title "packet bytes from higher layer, count"
scalar test_eth.switch1.phy[0].mac rxPkFromHL:sum(packetBytes) 3036
attr interpolationmode none
attr source rxPkFromHL
attr title "packet bytes from higher layer, sum(packetBytes)"
scalar test_eth.switch1.phy[0].mac rxPausePkUnits:count 0
attr interpolationmode none
attr title "pause units received, count"
scalar test_eth.switch1.phy[0].mac rxPausePkUnits:sum 0
attr interpolationmode none
attr title "pause units received, sum"
scalar test_eth.switch1.phy[0].mac txPausePkUnits:count 0
attr interpolationmode none
attr title "pause units sent, count"
scalar test_eth.switch1.phy[0].mac txPausePkUnits:sum 0
attr interpolationmode none
attr title "pause units sent, sum"
scalar test_eth.switch1.phy[0].mac txPk:count 2
attr interpolationmode none
attr source txPk
attr title "packets transmitted, count"
scalar test_eth.switch1.phy[0].mac txPk:sum(packetBytes) 3036
attr interpolationmode none
attr source txPk
attr title "packets transmitted, sum(packetBytes)"
scalar test_eth.switch1.phy[0].mac droppedPkNotForUs:count 0
attr interpolationmode none
attr source dropPkNotForUs
attr title "packets dropped/not for us, count"
scalar test_eth.switch1.phy[0].mac droppedPkNotForUs:sum(packetBytes) 0
attr interpolationmode none
attr source dropPkNotForUs
attr title "packets dropped/not for us, sum(packetBytes)"
scalar test_eth.switch1.phy[0].mac droppedPkBitError:count 0
attr interpolationmode none
attr source dropPkBitError
attr title "packets dropped/bit error, count"
scalar test_eth.switch1.phy[0].mac droppedPkBitError:sum(packetBytes) 0
attr interpolationmode none
attr source dropPkBitError
attr title "packets dropped/bit error, sum(packetBytes)"
scalar test_eth.switch1.phy[0].mac droppedPkIfaceDown:count 0
attr interpolationmode none
attr source dropPkIfaceDown
attr title "packets dropped/interface down, count"
scalar test_eth.switch1.phy[0].mac droppedPkIfaceDown:sum(packetBytes) 0
attr interpolationmode none
attr source dropPkIfaceDown
attr title "packets dropped/interface down, sum(packetBytes)"
scalar test_eth.switch1.phy[0].mac rxPkOk:count 9
attr interpolationmode none
attr source rxPkOk
attr title "packets received OK, count"
scalar test_eth.switch1.phy[0].mac rxPkOk:sum(packetBytes) 13662
attr interpolationmode none
attr source rxPkOk
attr title "packets received OK, sum(packetBytes)"
scalar test_eth.switch1.phy[0].mac passedUpPk:count 9
attr interpolationmode none
attr source packetSentToUpper
attr title "packets passed to higher layer, count"
scalar test_eth.switch1.phy[0].mac passedUpPk:sum(packetBytes) 13662
attr interpolationmode none
attr source packetSentToUpper
attr title "packets passed to higher layer, sum(packetBytes)"
statistic test_eth.switch1.phy[1].shaper q7QueueSize:stats
field count 1
field mean 0
field stddev nan
field min 0
field max 0
field sum 0
field sqrsum 0
attr interpolationmode sample-hold
attr title "Q-Queue Size (q7QueueSize)"
attr unit B
statistic test_eth.switch1.phy[1].shaper q7QueueLength:stats
field count 1
field mean 0
field stddev nan
field min 0
field max 0
field sum 0
field sqrsum 0
attr interpolationmode sample-hold
attr title "Q-Queue Length (q7QueueLength)"
attr unit packets
statistic test_eth.switch1.phy[1].shaper q6QueueSize:stats
field count 1
field mean 0
field stddev nan
field min 0
field max 0
field sum 0
field sqrsum 0
attr interpolationmode sample-hold
attr title "Q-Queue Size (q6QueueSize)"
attr unit B
statistic test_eth.switch1.phy[1].shaper q6QueueLength:stats
field count 1
field mean 0
field stddev nan
field min 0
field max 0
field sum 0
field sqrsum 0
attr interpolationmode sample-hold
attr title "Q-Queue Length (q6QueueLength)"
attr unit packets
statistic test_eth.switch1.phy[1].shaper q5QueueSize:stats
field count 1
field mean 0
field stddev nan
field min 0
field max 0
field sum 0
field sqrsum 0
attr interpolationmode sample-hold
attr title "Q-Queue Size (q5QueueSize)"
attr unit B
statistic test_eth.switch1.phy[1].shaper q5QueueLength:stats
field count 1
field mean 0
field stddev nan
field min 0
field max 0
field sum 0
field sqrsum 0
attr interpolationmode sample-hold
attr title "Q-Queue Length (q5QueueLength)"
attr unit packets
statistic test_eth.switch1.phy[1].shaper q4QueueSize:stats
field count 1
field mean 0
field stddev nan
field min 0
field max 0
field sum 0
field sqrsum 0
attr interpolationmode sample-hold
attr title "Q-Queue Size (q4QueueSize)"
attr unit B
statistic test_eth.switch1.phy[1].shaper q4QueueLength:stats
field count 1
field mean 0
field stddev nan
field min 0
field max 0
field sum 0
field sqrsum 0
attr interpolationmode sample-hold
attr title "Q-Queue Length (q4QueueLength)"
attr unit packets
statistic test_eth.switch1.phy[1].shaper q3QueueSize:stats
field count 1
field mean 0
field stddev nan
field min 0
field max 0
field sum 0
field sqrsum 0
attr interpolationmode sample-hold
attr title "Q-Queue Size (q3QueueSize)"
attr unit B
statistic test_eth.switch1.phy[1].shaper q3QueueLength:stats
field count 1
field mean 0
field stddev nan
field min 0
field max 0
field sum 0
field sqrsum 0
attr interpolationmode sample-hold
attr title "Q-Queue Length (q3QueueLength)"
attr unit packets
statistic test_eth.switch1.phy[1].shaper q2QueueSize:stats
field count 1
field mean 0
field stddev nan
field min 0
field max 0
field sum 0
field sqrsum 0
attr interpolationmode sample-hold
attr title "Q-Queue Size (q2QueueSize)"
attr unit B
statistic test_eth.switch1.phy[1].shaper q2QueueLength:stats
field count 1
field mean 0
field stddev nan
field min 0
field max 0
field sum 0
field sqrsum 0
attr interpolationmode sample-hold
attr title "Q-Queue Length (q2QueueLength)"
attr unit packets
statistic test_eth.switch1.phy[1].shaper q1QueueSize:stats
field count 1
field mean 0
field stddev nan
field min 0
field max 0
field sum 0
field sqrsum 0
attr interpolationmode sample-hold
attr title "Q-Queue Size (q1QueueSize)"
attr unit B
statistic test_eth.switch1.phy[1].shaper q1QueueLength:stats
field count 1
field mean 0
field stddev nan
field min 0
field max 0
field sum 0
field sqrsum 0
attr interpolationmode sample-hold
attr title "Q-Queue Length (q1QueueLength)"
attr unit packets
statistic test_eth.switch1.phy[1].shaper q0QueueSize:stats
field count 1
field mean 0
field stddev nan
field min 0
field max 0
field sum 0
field sqrsum 0
attr interpolationmode sample-hold
attr title "Q-Queue Size (q0QueueSize)"
attr unit B
statistic test_eth.switch1.phy[1].shaper q0QueueLength:stats
field count 1
field mean 0
field stddev nan
field min 0
field max 0
field sum 0
field sqrsum 0
attr interpolationmode sample-hold
attr title "Q-Queue Length (q0QueueLength)"
attr unit packets
statistic test_eth.switch1.phy[1].inControl rxLatency:stats
field count 3
field mean 0.00012213
field stddev 1.8189894035459e-012
field min 0.00012213
field max 0.00012213
field sum 0.00036639
field sqrsum 4.47472107e-008
attr interpolationmode none
attr source messageAge(rxPk)
attr title "End-to-end latency (received), stats"
attr unit s
statistic test_eth.switch1.phy[1].inControl rxLatency:histogram
field count 3
field mean 0.00012213
field stddev 1.8189894035459e-012
field min 0.00012213
field max 0.00012213
field sum 0.00036639
field sqrsum 4.47472107e-008
attr interpolationmode none
attr source messageAge(rxPk)
attr title "End-to-end latency (received), histogram"
attr unit s
bin	-inf	0
bin	0	3
bin	0.01	0
bin	0.02	0
bin	0.03	0
bin	0.04	0
bin	0.05	0
bin	0.06	0
bin	0.07	0
bin	0.08	0
bin	0.09	0
bin	0.1	0
bin	0.11	0
bin	0.12	0
bin	0.13	0
bin	0.14	0
bin	0.15	0
bin	0.16	0
bin	0.17	0
bin	0.18	0
bin	0.19	0
bin	0.2	0
bin	0.21	0
bin	0.22	0
bin	0.23	0
bin	0.24	0
bin	0.25	0
bin	0.26	0
bin	0.27	0
bin	0.28	0
bin	0.29	0
bin	0.3	0
bin	0.31	0
bin	0.32	0
bin	0.33	0
bin	0.34	0
bin	0.35	0
bin	0.36	0
bin	0.37	0
bin	0.38	0
bin	0.39	0
bin	0.4	0
bin	0.41	0
bin	0.42	0
bin	0.43	0
bin	0.44	0
bin	0.45	0
bin	0.46	0
bin	0.47	0
bin	0.48	0
bin	0.49	0
bin	0.5	0
bin	0.51	0
scalar test_eth.switch1.phy[1].mac "simulated time" 0.400320112901
scalar test_eth.switch1.phy[1].mac full-duplex 1
scalar test_eth.switch1.phy[1].mac "frames/sec sent" 9.9920035768705
scalar test_eth.switch1.phy[1].mac "frames/sec rcvd" 7.4940026826529
scalar test_eth.switch1.phy[1].mac "bits/sec sent" 121342.89143752
scalar test_eth.switch1.phy[1].mac "bits/sec rcvd" 91007.168578137
scalar test_eth.switch1.phy[1].mac "rx channel idle (%)" 99.90851321525
scalar test_eth.switch1.phy[1].mac "rx channel utilization (%)" 0.091486784749826
scalar test_eth.switch1.phy[1].mac rxPkFromHL:count 4
attr interpolationmode none
attr source rxPkFromHL
attr title "packet bytes from higher layer, count"
scalar test_eth.switch1.phy[1].mac rxPkFromHL:sum(packetBytes) 6072
attr interpolationmode none
attr source rxPkFromHL
attr title "packet bytes from higher layer, sum(packetBytes)"
scalar test_eth.switch1.phy[1].mac rxPausePkUnits:count 0
attr interpolationmode none
attr title "pause units received, count"
scalar test_eth.switch1.phy[1].mac rxPausePkUnits:sum 0
attr interpolationmode none
attr title "pause units received, sum"
scalar test_eth.switch1.phy[1].mac txPausePkUnits:count 0
attr interpolationmode none
attr title "pause units sent, count"
scalar test_eth.switch1.phy[1].mac txPausePkUnits:sum 0
attr interpolationmode none
attr title "pause units sent, sum"
scalar test_eth.switch1.phy[1].mac txPk:count 4
attr interpolationmode none
attr source txPk
attr title "packets transmitted, count"
scalar test_eth.switch1.phy[1].mac txPk:sum(packetBytes) 6072
attr interpolationmode none
attr source txPk
attr title "packets transmitted, sum(packetBytes)"
scalar test_eth.switch1.phy[1].mac droppedPkNotForUs:count 0
attr interpolationmode none
attr source dropPkNotForUs
attr title "packets dropped/not for us, count"
scalar test_eth.switch1.phy[1].mac droppedPkNotForUs:sum(packetBytes) 0
attr interpolationmode none
attr source dropPkNotForUs
attr title "packets dropped/not for us, sum(packetBytes)"
scalar test_eth.switch1.phy[1].mac droppedPkBitError:count 0
attr interpolationmode none
attr source dropPkBitError
attr title "packets dropped/bit error, count"
scalar test_eth.switch1.phy[1].mac droppedPkBitError:sum(packetBytes) 0
attr interpolationmode none
attr source dropPkBitError
attr title "packets dropped/bit error, sum(packetBytes)"
scalar test_eth.switch1.phy[1].mac droppedPkIfaceDown:count 0
attr interpolationmode none
attr source dropPkIfaceDown
attr title "packets dropped/interface down, count"
scalar test_eth.switch1.phy[1].mac droppedPkIfaceDown:sum(packetBytes) 0
attr interpolationmode none
attr source dropPkIfaceDown
attr title "packets dropped/interface down, sum(packetBytes)"
scalar test_eth.switch1.phy[1].mac rxPkOk:count 3
attr interpolationmode none
attr source rxPkOk
attr title "packets received OK, count"
scalar test_eth.switch1.phy[1].mac rxPkOk:sum(packetBytes) 4554
attr interpolationmode none
attr source rxPkOk
attr title "packets received OK, sum(packetBytes)"
scalar test_eth.switch1.phy[1].mac passedUpPk:count 3
attr interpolationmode none
attr source packetSentToUpper
attr title "packets passed to higher layer, count"
scalar test_eth.switch1.phy[1].mac passedUpPk:sum(packetBytes) 4554
attr interpolationmode none
attr source packetSentToUpper
attr title "packets passed to higher layer, sum(packetBytes)"
statistic test_eth.switch1.phy[2].shaper q7QueueSize:stats
field count 1
field mean 0
field stddev nan
field min 0
field max 0
field sum 0
field sqrsum 0
attr interpolationmode sample-hold
attr title "Q-Queue Size (q7QueueSize)"
attr unit B
statistic test_eth.switch1.phy[2].shaper q7QueueLength:stats
field count 1
field mean 0
field stddev nan
field min 0
field max 0
field sum 0
field sqrsum 0
attr interpolationmode sample-hold
attr title "Q-Queue Length (q7QueueLength)"
attr unit packets
statistic test_eth.switch1.phy[2].shaper q6QueueSize:stats
field count 1
field mean 0
field stddev nan
field min 0
field max 0
field sum 0
field sqrsum 0
attr interpolationmode sample-hold
attr title "Q-Queue Size (q6QueueSize)"
attr unit B
statistic test_eth.switch1.phy[2].shaper q6QueueLength:stats
field count 1
field mean 0
field stddev nan
field min 0
field max 0
field sum 0
field sqrsum 0
attr interpolationmode sample-hold
attr title "Q-Queue Length (q6QueueLength)"
attr unit packets
statistic test_eth.switch1.phy[2].shaper q5QueueSize:stats
field count 1
field mean 0
field stddev nan
field min 0
field max 0
field sum 0
field sqrsum 0
attr interpolationmode sample-hold
attr title "Q-Queue Size (q5QueueSize)"
attr unit B
statistic test_eth.switch1.phy[2].shaper q5QueueLength:stats
field count 1
field mean 0
field stddev nan
field min 0
field max 0
field sum 0
field sqrsum 0
attr interpolationmode sample-hold
attr title "Q-Queue Length (q5QueueLength)"
attr unit packets
statistic test_eth.switch1.phy[2].shaper q4QueueSize:stats
field count 1
field mean 0
field stddev nan
field min 0
field max 0
field sum 0
field sqrsum 0
attr interpolationmode sample-hold
attr title "Q-Queue Size (q4QueueSize)"
attr unit B
statistic test_eth.switch1.phy[2].shaper q4QueueLength:stats
field count 1
field mean 0
field stddev nan
field min 0
field max 0
field sum 0
field sqrsum 0
attr interpolationmode sample-hold
attr title "Q-Queue Length (q4QueueLength)"
attr unit packets
statistic test_eth.switch1.phy[2].shaper q3QueueSize:stats
field count 1
field mean 0
field stddev nan
field min 0
field max 0
field sum 0
field sqrsum 0
attr interpolationmode sample-hold
attr title "Q-Queue Size (q3QueueSize)"
attr unit B
statistic test_eth.switch1.phy[2].shaper q3QueueLength:stats
field count 1
field mean 0
field stddev nan
field min 0
field max 0
field sum 0
field sqrsum 0
attr interpolationmode sample-hold
attr title "Q-Queue Length (q3QueueLength)"
attr unit packets
statistic test_eth.switch1.phy[2].shaper q2QueueSize:stats
field count 1
field mean 0
field stddev nan
field min 0
field max 0
field sum 0
field sqrsum 0
attr interpolationmode sample-hold
attr title "Q-Queue Size (q2QueueSize)"
attr unit B
statistic test_eth.switch1.phy[2].shaper q2QueueLength:stats
field count 1
field mean 0
field stddev nan
field min 0
field max 0
field sum 0
field sqrsum 0
attr interpolationmode sample-hold
attr title "Q-Queue Length (q2QueueLength)"
attr unit packets
statistic test_eth.switch1.phy[2].shaper q1QueueSize:stats
field count 1
field mean 0
field stddev nan
field min 0
field max 0
field sum 0
field sqrsum 0
attr interpolationmode sample-hold
attr title "Q-Queue Size (q1QueueSize)"
attr unit B
statistic test_eth.switch1.phy[2].shaper q1QueueLength:stats
field count 1
field mean 0
field stddev nan
field min 0
field max 0
field sum 0
field sqrsum 0
attr interpolationmode sample-hold
attr title "Q-Queue Length (q1QueueLength)"
attr unit packets
statistic test_eth.switch1.phy[2].shaper q0QueueSize:stats
field count 5
field mean 607.2
field stddev 831.44284229284
field min 0
field max 1518
field sum 3036
field sqrsum 4608648
attr interpolationmode sample-hold
attr title "Q-Queue Size (q0QueueSize)"
attr unit B
statistic test_eth.switch1.phy[2].shaper q0QueueLength:stats
field count 5
field mean 0.4
field stddev 0.54772255750517
field min 0
field max 1
field sum 2
field sqrsum 2
attr interpolationmode sample-hold
attr title "Q-Queue Length (q0QueueLength)"
attr unit packets
statistic test_eth.switch1.phy[2].inControl rxLatency:stats
field count 5
field mean 0.00012213
field stddev 0
field min 0.00012213
field max 0.00012213
field sum 0.00061065
field sqrsum 7.45786845e-008
attr interpolationmode none
attr source messageAge(rxPk)
attr title "End-to-end latency (received), stats"
attr unit s
statistic test_eth.switch1.phy[2].inControl rxLatency:histogram
field count 5
field mean 0.00012213
field stddev 0
field min 0.00012213
field max 0.00012213
field sum 0.00061065
field sqrsum 7.45786845e-008
attr interpolationmode none
attr source messageAge(rxPk)
attr title "End-to-end latency (received), histogram"
attr unit s
bin	-inf	0
bin	0	5
bin	0.01	0
bin	0.02	0
bin	0.03	0
bin	0.04	0
bin	0.05	0
bin	0.06	0
bin	0.07	0
bin	0.08	0
bin	0.09	0
bin	0.1	0
bin	0.11	0
bin	0.12	0
bin	0.13	0
bin	0.14	0
bin	0.15	0
bin	0.16	0
bin	0.17	0
bin	0.18	0
bin	0.19	0
bin	0.2	0
bin	0.21	0
bin	0.22	0
bin	0.23	0
bin	0.24	0
bin	0.25	0
bin	0.26	0
bin	0.27	0
bin	0.28	0
bin	0.29	0
bin	0.3	0
bin	0.31	0
bin	0.32	0
bin	0.33	0
bin	0.34	0
bin	0.35	0
bin	0.36	0
bin	0.37	0
bin	0.38	0
bin	0.39	0
bin	0.4	0
bin	0.41	0
bin	0.42	0
bin	0.43	0
bin	0.44	0
bin	0.45	0
bin	0.46	0
bin	0.47	0
bin	0.48	0
bin	0.49	0
bin	0.5	0
bin	0.51	0
scalar test_eth.switch1.phy[2].mac "simulated time" 0.400320112901
scalar test_eth.switch1.phy[2].mac full-duplex 1
scalar test_eth.switch1.phy[2].mac "frames/sec sent" 27.478009836394
scalar test_eth.switch1.phy[2].mac "frames/sec rcvd" 12.490004471088
scalar test_eth.switch1.phy[2].mac "bits/sec sent" 333692.95145317
scalar test_eth.switch1.phy[2].mac "bits/sec rcvd" 151678.61429689
scalar test_eth.switch1.phy[2].mac "rx channel idle (%)" 99.847522025417
scalar test_eth.switch1.phy[2].mac "rx channel utilization (%)" 0.15247797458304
scalar test_eth.switch1.phy[2].mac rxPkFromHL:count 12
attr interpolationmode none
attr source rxPkFromHL
attr title "packet bytes from higher layer, count"
scalar test_eth.switch1.phy[2].mac rxPkFromHL:sum(packetBytes) 18216
attr interpolationmode none
attr source rxPkFromHL
attr title "packet bytes from higher layer, sum(packetBytes)"
scalar test_eth.switch1.phy[2].mac rxPausePkUnits:count 0
attr interpolationmode none
attr title "pause units received, count"
scalar test_eth.switch1.phy[2].mac rxPausePkUnits:sum 0
attr interpolationmode none
attr title "pause units received, sum"
scalar test_eth.switch1.phy[2].mac txPausePkUnits:count 0
attr interpolationmode none
attr title "pause units sent, count"
scalar test_eth.switch1.phy[2].mac txPausePkUnits:sum 0
attr interpolationmode none
attr title "pause units sent, sum"
scalar test_eth.switch1.phy[2].mac txPk:count 11
attr interpolationmode none
attr source txPk
attr title "packets transmitted, count"
scalar test_eth.switch1.phy[2].mac txPk:sum(packetBytes) 16698
attr interpolationmode none
attr source txPk
attr title "packets transmitted, sum(packetBytes)"
scalar test_eth.switch1.phy[2].mac droppedPkNotForUs:count 0
attr interpolationmode none
attr source dropPkNotForUs
attr title "packets dropped/not for us, count"
scalar test_eth.switch1.phy[2].mac droppedPkNotForUs:sum(packetBytes) 0
attr interpolationmode none
attr source dropPkNotForUs
attr title "packets dropped/not for us, sum(packetBytes)"
scalar test_eth.switch1.phy[2].mac droppedPkBitError:count 0
attr interpolationmode none
attr source dropPkBitError
attr title "packets dropped/bit error, count"
scalar test_eth.switch1.phy[2].mac droppedPkBitError:sum(packetBytes) 0
attr interpolationmode none
attr source dropPkBitError
attr title "packets dropped/bit error, sum(packetBytes)"
scalar test_eth.switch1.phy[2].mac droppedPkIfaceDown:count 0
attr interpolationmode none
attr source dropPkIfaceDown
attr title "packets dropped/interface down, count"
scalar test_eth.switch1.phy[2].mac droppedPkIfaceDown:sum(packetBytes) 0
attr interpolationmode none
attr source dropPkIfaceDown
attr title "packets dropped/interface down, sum(packetBytes)"
scalar test_eth.switch1.phy[2].mac rxPkOk:count 5
attr interpolationmode none
attr source rxPkOk
attr title "packets received OK, count"
scalar test_eth.switch1.phy[2].mac rxPkOk:sum(packetBytes) 7590
attr interpolationmode none
attr source rxPkOk
attr title "packets received OK, sum(packetBytes)"
scalar test_eth.switch1.phy[2].mac passedUpPk:count 5
attr interpolationmode none
attr source packetSentToUpper
attr title "packets passed to higher layer, count"
scalar test_eth.switch1.phy[2].mac passedUpPk:sum(packetBytes) 7590
attr interpolationmode none
attr source packetSentToUpper
attr title "packets passed to higher layer, sum(packetBytes)"
scalar test_eth.switch1.scheduler.period[0] numberOfCycles:count 133
attr interpolationmode none
attr source newCycle
attr title "Number of cycle, count"
statistic test_eth.IP_zentral.phy[0].shaper q7QueueSize:stats
field count 1
field mean 0
field stddev nan
field min 0
field max 0
field sum 0
field sqrsum 0
attr interpolationmode sample-hold
attr title "Q-Queue Size (q7QueueSize)"
attr unit B
statistic test_eth.IP_zentral.phy[0].shaper q7QueueLength:stats
field count 1
field mean 0
field stddev nan
field min 0
field max 0
field sum 0
field sqrsum 0
attr interpolationmode sample-hold
attr title "Q-Queue Length (q7QueueLength)"
attr unit packets
statistic test_eth.IP_zentral.phy[0].shaper q6QueueSize:stats
field count 1
field mean 0
field stddev nan
field min 0
field max 0
field sum 0
field sqrsum 0
attr interpolationmode sample-hold
attr title "Q-Queue Size (q6QueueSize)"
attr unit B
statistic test_eth.IP_zentral.phy[0].shaper q6QueueLength:stats
field count 1
field mean 0
field stddev nan
field min 0
field max 0
field sum 0
field sqrsum 0
attr interpolationmode sample-hold
attr title "Q-Queue Length (q6QueueLength)"
attr unit packets
statistic test_eth.IP_zentral.phy[0].shaper q5QueueSize:stats
field count 1
field mean 0
field stddev nan
field min 0
field max 0
field sum 0
field sqrsum 0
attr interpolationmode sample-hold
attr title "Q-Queue Size (q5QueueSize)"
attr unit B
statistic test_eth.IP_zentral.phy[0].shaper q5QueueLength:stats
field count 1
field mean 0
field stddev nan
field min 0
field max 0
field sum 0
field sqrsum 0
attr interpolationmode sample-hold
attr title "Q-Queue Length (q5QueueLength)"
attr unit packets
statistic test_eth.IP_zentral.phy[0].shaper q4QueueSize:stats
field count 1
field mean 0
field stddev nan
field min 0
field max 0
field sum 0
field sqrsum 0
attr interpolationmode sample-hold
attr title "Q-Queue Size (q4QueueSize)"
attr unit B
statistic test_eth.IP_zentral.phy[0].shaper q4QueueLength:stats
field count 1
field mean 0
field stddev nan
field min 0
field max 0
field sum 0
field sqrsum 0
attr interpolationmode sample-hold
attr title "Q-Queue Length (q4QueueLength)"
attr unit packets
statistic test_eth.IP_zentral.phy[0].shaper q3QueueSize:stats
field count 1
field mean 0
field stddev nan
field min 0
field max 0
field sum 0
field sqrsum 0
attr interpolationmode sample-hold
attr title "Q-Queue Size (q3QueueSize)"
attr unit B
statistic test_eth.IP_zentral.phy[0].shaper q3QueueLength:stats
field count 1
field mean 0
field stddev nan
field min 0
field max 0
field sum 0
field sqrsum 0
attr interpolationmode sample-hold
attr title "Q-Queue Length (q3QueueLength)"
attr unit packets
statistic test_eth.IP_zentral.phy[0].shaper q2QueueSize:stats
field count 1
field mean 0
field stddev nan
field min 0
field max 0
field sum 0
field sqrsum 0
attr interpolationmode sample-hold
attr title "Q-Queue Size (q2QueueSize)"
attr unit B
statistic test_eth.IP_zentral.phy[0].shaper q2QueueLength:stats
field count 1
field mean 0
field stddev nan
field min 0
field max 0
field sum 0
field sqrsum 0
attr interpolationmode sample-hold
attr title "Q-Queue Length (q2QueueLength)"
attr unit packets
statistic test_eth.IP_zentral.phy[0].shaper q1QueueSize:stats
field count 1
field mean 0
field stddev nan
field min 0
field max 0
field sum 0
field sqrsum 0
attr interpolationmode sample-hold
attr title "Q-Queue Size (q1QueueSize)"
attr unit B
statistic test_eth.IP_zentral.phy[0].shaper q1QueueLength:stats
field count 1
field mean 0
field stddev nan
field min 0
field max 0
field sum 0
field sqrsum 0
attr interpolationmode sample-hold
attr title "Q-Queue Length (q1QueueLength)"
attr unit packets
statistic test_eth.IP_zentral.phy[0].shaper q0QueueSize:stats
field count 1
field mean 0
field stddev nan
field min 0
field max 0
field sum 0
field sqrsum 0
attr interpolationmode sample-hold
attr title "Q-Queue Size (q0QueueSize)"
attr unit B
statistic test_eth.IP_zentral.phy[0].shaper q0QueueLength:stats
field count 1
field mean 0
field stddev nan
field min 0
field max 0
field sum 0
field sqrsum 0
attr interpolationmode sample-hold
attr title "Q-Queue Length (q0QueueLength)"
attr unit packets
statistic test_eth.IP_zentral.phy[0].inControl rxLatency:stats
field count 11
field mean 0.00026344545454545
field stddev 3.7097955836849e-005
field min 0.00025226
field max 0.0003753
field sum 0.0028979
field sqrsum 7.77201166e-007
attr interpolationmode none
attr source messageAge(rxPk)
attr title "End-to-end latency (received), stats"
attr unit s
statistic test_eth.IP_zentral.phy[0].inControl rxLatency:histogram
field count 11
field mean 0.00026344545454545
field stddev 3.7097955836849e-005
field min 0.00025226
field max 0.0003753
field sum 0.0028979
field sqrsum 7.77201166e-007
attr interpolationmode none
attr source messageAge(rxPk)
attr title "End-to-end latency (received), histogram"
attr unit s
bin	-inf	0
bin	0.00022	0
bin	0.000222	0
bin	0.000224	0
bin	0.000226	0
bin	0.000228	0
bin	0.00023	0
bin	0.000232	0
bin	0.000234	0
bin	0.000236	0
bin	0.000238	0
bin	0.00024	0
bin	0.000242	0
bin	0.000244	0
bin	0.000246	0
bin	0.000248	0
bin	0.00025	0
bin	0.000252	10
bin	0.000254	0
bin	0.000256	0
bin	0.000258	0
bin	0.00026	0
bin	0.000262	0
bin	0.000264	0
bin	0.000266	0
bin	0.000268	0
bin	0.00027	0
bin	0.000272	0
bin	0.000274	0
bin	0.000276	0
bin	0.000278	0
bin	0.00028	0
bin	0.000282	0
bin	0.000284	0
bin	0.000286	0
bin	0.000288	0
bin	0.00029	0
bin	0.000292	0
bin	0.000294	0
bin	0.000296	0
bin	0.000298	0
bin	0.0003	0
bin	0.000302	0
bin	0.000304	0
bin	0.000306	0
bin	0.000308	0
bin	0.00031	0
bin	0.000312	0
bin	0.000314	0
bin	0.000316	0
bin	0.000318	0
bin	0.00032	0
bin	0.000322	0
bin	0.000324	0
bin	0.000326	0
bin	0.000328	0
bin	0.00033	0
bin	0.000332	0
bin	0.000334	0
bin	0.000336	0
bin	0.000338	0
bin	0.00034	0
bin	0.000342	0
bin	0.000344	0
bin	0.000346	0
bin	0.000348	0
bin	0.00035	0
bin	0.000352	0
bin	0.000354	0
bin	0.000356	0
bin	0.000358	0
bin	0.00036	0
bin	0.000362	0
bin	0.000364	0
bin	0.000366	0
bin	0.000368	0
bin	0.00037	0
bin	0.000372	0
bin	0.000374	1
bin	0.000376	0
bin	0.000378	0
bin	0.00038	0
bin	0.000382	0
bin	0.000384	0
bin	0.000386	0
bin	0.000388	0
bin	0.00039	0
bin	0.000392	0
bin	0.000394	0
bin	0.000396	0
bin	0.000398	0
bin	0.0004	0
bin	0.000402	0
bin	0.000404	0
bin	0.000406	0
bin	0.000408	0
scalar test_eth.IP_zentral.phy[0].mac "simulated time" 0.400320112901
scalar test_eth.IP_zentral.phy[0].mac full-duplex 1
scalar test_eth.IP_zentral.phy[0].mac "frames/sec sent" 12.490004471088
scalar test_eth.IP_zentral.phy[0].mac "frames/sec rcvd" 27.478009836394
scalar test_eth.IP_zentral.phy[0].mac "bits/sec sent" 151678.61429689
scalar test_eth.IP_zentral.phy[0].mac "bits/sec rcvd" 333692.95145317
scalar test_eth.IP_zentral.phy[0].mac "rx channel idle (%)" 99.664548455917
scalar test_eth.IP_zentral.phy[0].mac "rx channel utilization (%)" 0.3354515440827
scalar test_eth.IP_zentral.phy[0].mac rxPkFromHL:count 5
attr interpolationmode none
attr source rxPkFromHL
attr title "packet bytes from higher layer, count"
scalar test_eth.IP_zentral.phy[0].mac rxPkFromHL:sum(packetBytes) 7590
attr interpolationmode none
attr source rxPkFromHL
attr title "packet bytes from higher layer, sum(packetBytes)"
scalar test_eth.IP_zentral.phy[0].mac rxPausePkUnits:count 0
attr interpolationmode none
attr title "pause units received, count"
scalar test_eth.IP_zentral.phy[0].mac rxPausePkUnits:sum 0
attr interpolationmode none
attr title "pause units received, sum"
scalar test_eth.IP_zentral.phy[0].mac txPausePkUnits:count 0
attr interpolationmode none
attr title "pause units sent, count"
scalar test_eth.IP_zentral.phy[0].mac txPausePkUnits:sum 0
attr interpolationmode none
attr title "pause units sent, sum"
scalar test_eth.IP_zentral.phy[0].mac txPk:count 5
attr interpolationmode none
attr source txPk
attr title "packets transmitted, count"
scalar test_eth.IP_zentral.phy[0].mac txPk:sum(packetBytes) 7590
attr interpolationmode none
attr source txPk
attr title "packets transmitted, sum(packetBytes)"
scalar test_eth.IP_zentral.phy[0].mac droppedPkNotForUs:count 0
attr interpolationmode none
attr source dropPkNotForUs
attr title "packets dropped/not for us, count"
scalar test_eth.IP_zentral.phy[0].mac droppedPkNotForUs:sum(packetBytes) 0
attr interpolationmode none
attr source dropPkNotForUs
attr title "packets dropped/not for us, sum(packetBytes)"
scalar test_eth.IP_zentral.phy[0].mac droppedPkBitError:count 0
attr interpolationmode none
attr source dropPkBitError
attr title "packets dropped/bit error, count"
scalar test_eth.IP_zentral.phy[0].mac droppedPkBitError:sum(packetBytes) 0
attr interpolationmode none
attr source dropPkBitError
attr title "packets dropped/bit error, sum(packetBytes)"
scalar test_eth.IP_zentral.phy[0].mac droppedPkIfaceDown:count 0
attr interpolationmode none
attr source dropPkIfaceDown
attr title "packets dropped/interface down, count"
scalar test_eth.IP_zentral.phy[0].mac droppedPkIfaceDown:sum(packetBytes) 0
attr interpolationmode none
attr source dropPkIfaceDown
attr title "packets dropped/interface down, sum(packetBytes)"
scalar test_eth.IP_zentral.phy[0].mac rxPkOk:count 11
attr interpolationmode none
attr source rxPkOk
attr title "packets received OK, count"
scalar test_eth.IP_zentral.phy[0].mac rxPkOk:sum(packetBytes) 16698
attr interpolationmode none
attr source rxPkOk
attr title "packets received OK, sum(packetBytes)"
scalar test_eth.IP_zentral.phy[0].mac passedUpPk:count 11
attr interpolationmode none
attr source packetSentToUpper
attr title "packets passed to higher layer, count"
scalar test_eth.IP_zentral.phy[0].mac passedUpPk:sum(packetBytes) 16698
attr interpolationmode none
attr source packetSentToUpper
attr title "packets passed to higher layer, sum(packetBytes)"
scalar test_eth.IP_zentral.encap pauseSent:count 0
attr title "pause sent, count"
scalar test_eth.IP_zentral.encap pauseSent:sum 0
attr title "pause sent, sum"
scalar test_eth.IP_zentral.encap decapPk:count 0
attr interpolationmode none
attr source decapPk
attr title "packets decapsulated, count"
scalar test_eth.IP_zentral.encap decapPk:sum(packetBytes) 0
attr interpolationmode none
attr source decapPk
attr title "packets decapsulated, sum(packetBytes)"
scalar test_eth.IP_zentral.encap encapPk:count 0
attr interpolationmode none
attr source encapPk
attr title "packets encapsulated, count"
scalar test_eth.IP_zentral.encap encapPk:sum(packetBytes) 0
attr interpolationmode none
attr source encapPk
attr title "packets encapsulated, sum(packetBytes)"
scalar test_eth.IP_zentral.scheduler.period[0] numberOfCycles:count 133
attr interpolationmode none
attr source newCycle
attr title "Number of cycle, count"
scalar test_eth.IP_zentral.app[0] rxPk:count 8
attr source rxPk
attr title "Received Packets, count"
attr unit packets
scalar test_eth.IP_zentral.app[0] rxBytes:sum(packetBytes) 12144
attr interpolationmode none
attr source rxPk
attr title "Received Bytes, sum(packetBytes)"
attr unit B
statistic test_eth.IP_zentral.app[0] rxBytes:histogram(packetBytes)
field count 8
field mean 1518
field stddev 0
field min 1518
field max 1518
field sum 12144
field sqrsum 18434592
attr interpolationmode none
attr source rxPk
attr title "Received Bytes, histogram(packetBytes)"
attr unit B
bin	-inf	0
bin	1517	0
bin	1518	8
bin	1519	0
statistic test_eth.IP_zentral.app[0] rxLatency:stats
field count 8
field mean 0.00025226
field stddev 3.8891629361376e-012
field min 0.00025226
field max 0.00025226
field sum 0.00201808
field sqrsum 5.090808608e-007
attr interpolationmode none
attr source messageAge(rxPk)
attr title "End-to-end latency, stats"
attr unit s
statistic test_eth.IP_zentral.app[0] rxLatency:histogram
field count 8
field mean 0.00025226
field stddev 3.8891629361376e-012
field min 0.00025226
field max 0.00025226
field sum 0.00201808
field sqrsum 5.090808608e-007
attr interpolationmode none
attr source messageAge(rxPk)
attr title "End-to-end latency, histogram"
attr unit s
bin	-inf	0
bin	0	8
bin	0.01	0
bin	0.02	0
bin	0.03	0
bin	0.04	0
bin	0.05	0
bin	0.06	0
bin	0.07	0
bin	0.08	0
bin	0.09	0
bin	0.1	0
bin	0.11	0
bin	0.12	0
bin	0.13	0
bin	0.14	0
bin	0.15	0
bin	0.16	0
bin	0.17	0
bin	0.18	0
bin	0.19	0
bin	0.2	0
bin	0.21	0
bin	0.22	0
bin	0.23	0
bin	0.24	0
bin	0.25	0
bin	0.26	0
bin	0.27	0
bin	0.28	0
bin	0.29	0
bin	0.3	0
bin	0.31	0
bin	0.32	0
bin	0.33	0
bin	0.34	0
bin	0.35	0
bin	0.36	0
bin	0.37	0
bin	0.38	0
bin	0.39	0
bin	0.4	0
bin	0.41	0
bin	0.42	0
bin	0.43	0
bin	0.44	0
bin	0.45	0
bin	0.46	0
bin	0.47	0
bin	0.48	0
bin	0.49	0
bin	0.5	0
bin	0.51	0
statistic test_eth.IP_zentral.app[0] rxLatencyInner:stats
field count 8
field mean 0.00025226
field stddev 3.8891629361376e-012
field min 0.00025226
field max 0.00025226
field sum 0.00201808
field sqrsum 5.090808608e-007
attr interpolationmode none
attr source messageAge(innerMessage(rxPk))
attr title "End-to-end latency inner, stats"
attr unit s
statistic test_eth.IP_zentral.app[0] rxLatencyInner:histogram
field count 8
field mean 0.00025226
field stddev 3.8891629361376e-012
field min 0.00025226
field max 0.00025226
field sum 0.00201808
field sqrsum 5.090808608e-007
attr interpolationmode none
attr source messageAge(innerMessage(rxPk))
attr title "End-to-end latency inner, histogram"
attr unit s
bin	-inf	0
bin	0	8
bin	0.01	0
bin	0.02	0
bin	0.03	0
bin	0.04	0
bin	0.05	0
bin	0.06	0
bin	0.07	0
bin	0.08	0
bin	0.09	0
bin	0.1	0
bin	0.11	0
bin	0.12	0
bin	0.13	0
bin	0.14	0
bin	0.15	0
bin	0.16	0
bin	0.17	0
bin	0.18	0
bin	0.19	0
bin	0.2	0
bin	0.21	0
bin	0.22	0
bin	0.23	0
bin	0.24	0
bin	0.25	0
bin	0.26	0
bin	0.27	0
bin	0.28	0
bin	0.29	0
bin	0.3	0
bin	0.31	0
bin	0.32	0
bin	0.33	0
bin	0.34	0
bin	0.35	0
bin	0.36	0
bin	0.37	0
bin	0.38	0
bin	0.39	0
bin	0.4	0
bin	0.41	0
bin	0.42	0
bin	0.43	0
bin	0.44	0
bin	0.45	0
bin	0.46	0
bin	0.47	0
bin	0.48	0
bin	0.49	0
bin	0.5	0
bin	0.51	0
scalar test_eth.IP_zentral.app[1] rxPk:count 3
attr source rxPk
attr title "Received Packets, count"
attr unit packets
scalar test_eth.IP_zentral.app[1] rxBytes:sum(packetBytes) 4554
attr interpolationmode none
attr source rxPk
attr title "Received Bytes, sum(packetBytes)"
attr unit B
statistic test_eth.IP_zentral.app[1] rxBytes:histogram(packetBytes)
field count 3
field mean 1518
field stddev 0
field min 1518
field max 1518
field sum 4554
field sqrsum 6912972
attr interpolationmode none
attr source rxPk
attr title "Received Bytes, histogram(packetBytes)"
attr unit B
bin	-inf	0
bin	1517	0
bin	1518	3
bin	1519	0
statistic test_eth.IP_zentral.app[1] rxLatency:stats
field count 3
field mean 0.00029327333333333
field stddev 7.1037177121092e-005
field min 0.00025226
field max 0.0003753
field sum 0.00087982
field sqrsum 2.681203052e-007
attr interpolationmode none
attr source messageAge(rxPk)
attr title "End-to-end latency, stats"
attr unit s
statistic test_eth.IP_zentral.app[1] rxLatency:histogram
field count 3
field mean 0.00029327333333333
field stddev 7.1037177121092e-005
field min 0.00025226
field max 0.0003753
field sum 0.00087982
field sqrsum 2.681203052e-007
attr interpolationmode none
attr source messageAge(rxPk)
attr title "End-to-end latency, histogram"
attr unit s
bin	-inf	0
bin	0.00022	0
bin	0.000222	0
bin	0.000224	0
bin	0.000226	0
bin	0.000228	0
bin	0.00023	0
bin	0.000232	0
bin	0.000234	0
bin	0.000236	0
bin	0.000238	0
bin	0.00024	0
bin	0.000242	0
bin	0.000244	0
bin	0.000246	0
bin	0.000248	0
bin	0.00025	0
bin	0.000252	2
bin	0.000254	0
bin	0.000256	0
bin	0.000258	0
bin	0.00026	0
bin	0.000262	0
bin	0.000264	0
bin	0.000266	0
bin	0.000268	0
bin	0.00027	0
bin	0.000272	0
bin	0.000274	0
bin	0.000276	0
bin	0.000278	0
bin	0.00028	0
bin	0.000282	0
bin	0.000284	0
bin	0.000286	0
bin	0.000288	0
bin	0.00029	0
bin	0.000292	0
bin	0.000294	0
bin	0.000296	0
bin	0.000298	0
bin	0.0003	0
bin	0.000302	0
bin	0.000304	0
bin	0.000306	0
bin	0.000308	0
bin	0.00031	0
bin	0.000312	0
bin	0.000314	0
bin	0.000316	0
bin	0.000318	0
bin	0.00032	0
bin	0.000322	0
bin	0.000324	0
bin	0.000326	0
bin	0.000328	0
bin	0.00033	0
bin	0.000332	0
bin	0.000334	0
bin	0.000336	0
bin	0.000338	0
bin	0.00034	0
bin	0.000342	0
bin	0.000344	0
bin	0.000346	0
bin	0.000348	0
bin	0.00035	0
bin	0.000352	0
bin	0.000354	0
bin	0.000356	0
bin	0.000358	0
bin	0.00036	0
bin	0.000362	0
bin	0.000364	0
bin	0.000366	0
bin	0.000368	0
bin	0.00037	0
bin	0.000372	0
bin	0.000374	1
bin	0.000376	0
bin	0.000378	0
bin	0.00038	0
bin	0.000382	0
bin	0.000384	0
bin	0.000386	0
bin	0.000388	0
bin	0.00039	0
bin	0.000392	0
bin	0.000394	0
bin	0.000396	0
bin	0.000398	0
bin	0.0004	0
bin	0.000402	0
bin	0.000404	0
bin	0.000406	0
bin	0.000408	0
statistic test_eth.IP_zentral.app[1] rxLatencyInner:stats
field count 3
field mean 0.00029327333333333
field stddev 7.1037177121092e-005
field min 0.00025226
field max 0.0003753
field sum 0.00087982
field sqrsum 2.681203052e-007
attr interpolationmode none
attr source messageAge(innerMessage(rxPk))
attr title "End-to-end latency inner, stats"
attr unit s
statistic test_eth.IP_zentral.app[1] rxLatencyInner:histogram
field count 3
field mean 0.00029327333333333
field stddev 7.1037177121092e-005
field min 0.00025226
field max 0.0003753
field sum 0.00087982
field sqrsum 2.681203052e-007
attr interpolationmode none
attr source messageAge(innerMessage(rxPk))
attr title "End-to-end latency inner, histogram"
attr unit s
bin	-inf	0
bin	0.00022	0
bin	0.000222	0
bin	0.000224	0
bin	0.000226	0
bin	0.000228	0
bin	0.00023	0
bin	0.000232	0
bin	0.000234	0
bin	0.000236	0
bin	0.000238	0
bin	0.00024	0
bin	0.000242	0
bin	0.000244	0
bin	0.000246	0
bin	0.000248	0
bin	0.00025	0
bin	0.000252	2
bin	0.000254	0
bin	0.000256	0
bin	0.000258	0
bin	0.00026	0
bin	0.000262	0
bin	0.000264	0
bin	0.000266	0
bin	0.000268	0
bin	0.00027	0
bin	0.000272	0
bin	0.000274	0
bin	0.000276	0
bin	0.000278	0
bin	0.00028	0
bin	0.000282	0
bin	0.000284	0
bin	0.000286	0
bin	0.000288	0
bin	0.00029	0
bin	0.000292	0
bin	0.000294	0
bin	0.000296	0
bin	0.000298	0
bin	0.0003	0
bin	0.000302	0
bin	0.000304	0
bin	0.000306	0
bin	0.000308	0
bin	0.00031	0
bin	0.000312	0
bin	0.000314	0
bin	0.000316	0
bin	0.000318	0
bin	0.00032	0
bin	0.000322	0
bin	0.000324	0
bin	0.000326	0
bin	0.000328	0
bin	0.00033	0
bin	0.000332	0
bin	0.000334	0
bin	0.000336	0
bin	0.000338	0
bin	0.00034	0
bin	0.000342	0
bin	0.000344	0
bin	0.000346	0
bin	0.000348	0
bin	0.00035	0
bin	0.000352	0
bin	0.000354	0
bin	0.000356	0
bin	0.000358	0
bin	0.00036	0
bin	0.000362	0
bin	0.000364	0
bin	0.000366	0
bin	0.000368	0
bin	0.00037	0
bin	0.000372	0
bin	0.000374	1
bin	0.000376	0
bin	0.000378	0
bin	0.00038	0
bin	0.000382	0
bin	0.000384	0
bin	0.000386	0
bin	0.000388	0
bin	0.00039	0
bin	0.000392	0
bin	0.000394	0
bin	0.000396	0
bin	0.000398	0
bin	0.0004	0
bin	0.000402	0
bin	0.000404	0
bin	0.000406	0
bin	0.000408	0
statistic test_eth.IP_zentral.app[2] sendIntervalOverTime:stats
field count 3
field mean 0.2
field stddev 0
field min 0.2
field max 0.2
field sum 0.6
field sqrsum 0.12
attr interpolationmode linear
attr source intervalSignal
attr title "send interval over time, stats"
attr unit s
statistic test_eth.IP_zentral.app[2] sendIntervalOverTime:histogram
field count 3
field mean 0.2
field stddev 0
field min 0.2
field max 0.2
field sum 0.6
field sqrsum 0.12
attr interpolationmode linear
attr source intervalSignal
attr title "send interval over time, histogram"
attr unit s
bin	-inf	0
bin	0	0
bin	0.01	0
bin	0.02	0
bin	0.03	0
bin	0.04	0
bin	0.05	0
bin	0.06	0
bin	0.07	0
bin	0.08	0
bin	0.09	0
bin	0.1	0
bin	0.11	0
bin	0.12	0
bin	0.13	0
bin	0.14	0
bin	0.15	0
bin	0.16	0
bin	0.17	0
bin	0.18	0
bin	0.19	3
bin	0.2	0
bin	0.21	0
bin	0.22	0
bin	0.23	0
bin	0.24	0
bin	0.25	0
bin	0.26	0
bin	0.27	0
bin	0.28	0
bin	0.29	0
bin	0.3	0
bin	0.31	0
bin	0.32	0
bin	0.33	0
bin	0.34	0
bin	0.35	0
bin	0.36	0
bin	0.37	0
bin	0.38	0
bin	0.39	0
bin	0.4	0
bin	0.41	0
bin	0.42	0
bin	0.43	0
bin	0.44	0
bin	0.45	0
bin	0.46	0
bin	0.47	0
bin	0.48	0
bin	0.49	0
bin	0.5	0
bin	0.51	0
bin	0.52	0
bin	0.53	0
bin	0.54	0
bin	0.55	0
bin	0.56	0
bin	0.57	0
bin	0.58	0
bin	0.59	0
bin	0.6	0
bin	0.61	0
bin	0.62	0
bin	0.63	0
bin	0.64	0
bin	0.65	0
bin	0.66	0
bin	0.67	0
bin	0.68	0
bin	0.69	0
bin	0.7	0
statistic test_eth.IP_zentral.app[2] payloadOverTime:stats
field count 3
field mean 1500
field stddev 0
field min 1500
field max 1500
field sum 4500
field sqrsum 6750000
attr interpolationmode linear
attr source payloadSignal
attr title "payload over time, stats"
attr unit B
statistic test_eth.IP_zentral.app[2] payloadOverTime:histogram
field count 3
field mean 1500
field stddev 0
field min 1500
field max 1500
field sum 4500
field sqrsum 6750000
attr interpolationmode linear
attr source payloadSignal
attr title "payload over time, histogram"
attr unit B
bin	-inf	0
bin	1499	0
bin	1500	3
bin	1501	0
scalar test_eth.IP_zentral.bgIn dropped:count 0
attr source dropped
attr title "Dropped frames, count"
attr unit packets
scalar test_eth.IP_zentral.bgIn rxPk:count 11
attr source rxPk
attr title "Received Packets, count"
attr unit packets
scalar test_eth.IP_zentral.bgIn rxBytes:sum(packetBytes) 16698
attr interpolationmode none
attr source rxPk
attr title "Received Bytes, sum(packetBytes)"
attr unit B
statistic test_eth.IP_zentral.bgIn rxBytes:histogram(packetBytes)
field count 11
field mean 1518
field stddev 0
field min 1518
field max 1518
field sum 16698
field sqrsum 25347564
attr interpolationmode none
attr source rxPk
attr title "Received Bytes, histogram(packetBytes)"
attr unit B
bin	-inf	0
bin	1517	0
bin	1518	11
bin	1519	0
statistic test_eth.IP_zentral.bgIn rxLatency:stats
field count 11
field mean 0.00026344545454545
field stddev 3.7097955836849e-005
field min 0.00025226
field max 0.0003753
field sum 0.0028979
field sqrsum 7.77201166e-007
attr interpolationmode none
attr source messageAge(rxPk)
attr title "End-to-end latency (received), stats"
attr unit s
statistic test_eth.IP_zentral.bgIn rxLatency:histogram
field count 11
field mean 0.00026344545454545
field stddev 3.7097955836849e-005
field min 0.00025226
field max 0.0003753
field sum 0.0028979
field sqrsum 7.77201166e-007
attr interpolationmode none
attr source messageAge(rxPk)
attr title "End-to-end latency (received), histogram"
attr unit s
bin	-inf	0
bin	0.00022	0
bin	0.000222	0
bin	0.000224	0
bin	0.000226	0
bin	0.000228	0
bin	0.00023	0
bin	0.000232	0
bin	0.000234	0
bin	0.000236	0
bin	0.000238	0
bin	0.00024	0
bin	0.000242	0
bin	0.000244	0
bin	0.000246	0
bin	0.000248	0
bin	0.00025	0
bin	0.000252	10
bin	0.000254	0
bin	0.000256	0
bin	0.000258	0
bin	0.00026	0
bin	0.000262	0
bin	0.000264	0
bin	0.000266	0
bin	0.000268	0
bin	0.00027	0
bin	0.000272	0
bin	0.000274	0
bin	0.000276	0
bin	0.000278	0
bin	0.00028	0
bin	0.000282	0
bin	0.000284	0
bin	0.000286	0
bin	0.000288	0
bin	0.00029	0
bin	0.000292	0
bin	0.000294	0
bin	0.000296	0
bin	0.000298	0
bin	0.0003	0
bin	0.000302	0
bin	0.000304	0
bin	0.000306	0
bin	0.000308	0
bin	0.00031	0
bin	0.000312	0
bin	0.000314	0
bin	0.000316	0
bin	0.000318	0
bin	0.00032	0
bin	0.000322	0
bin	0.000324	0
bin	0.000326	0
bin	0.000328	0
bin	0.00033	0
bin	0.000332	0
bin	0.000334	0
bin	0.000336	0
bin	0.000338	0
bin	0.00034	0
bin	0.000342	0
bin	0.000344	0
bin	0.000346	0
bin	0.000348	0
bin	0.00035	0
bin	0.000352	0
bin	0.000354	0
bin	0.000356	0
bin	0.000358	0
bin	0.00036	0
bin	0.000362	0
bin	0.000364	0
bin	0.000366	0
bin	0.000368	0
bin	0.00037	0
bin	0.000372	0
bin	0.000374	1
bin	0.000376	0
bin	0.000378	0
bin	0.00038	0
bin	0.000382	0
bin	0.000384	0
bin	0.000386	0
bin	0.000388	0
bin	0.00039	0
bin	0.000392	0
bin	0.000394	0
bin	0.000396	0
bin	0.000398	0
bin	0.0004	0
bin	0.000402	0
bin	0.000404	0
bin	0.000406	0
bin	0.000408	0
scalar test_eth.IP_zentral.bgIn txPk:count 11
attr source txPk
attr title "Transmitted Packets, count"
attr unit packets
scalar test_eth.IP_zentral.bgIn txBytes:sum(packetBytes) 16698
attr interpolationmode none
attr source txPk
attr title "Transmitted Bytes, sum(packetBytes)"
attr unit B
statistic test_eth.IP_zentral.bgIn txBytes:histogram(packetBytes)
field count 11
field mean 1518
field stddev 0
field min 1518
field max 1518
field sum 16698
field sqrsum 25347564
attr interpolationmode none
attr source txPk
attr title "Transmitted Bytes, histogram(packetBytes)"
attr unit B
bin	-inf	0
bin	1517	0
bin	1518	11
bin	1519	0
statistic test_eth.IP_zentral.bgIn txLatency:stats
field count 11
field mean 0.00026344545454545
field stddev 3.7097955836849e-005
field min 0.00025226
field max 0.0003753
field sum 0.0028979
field sqrsum 7.77201166e-007
attr interpolationmode none
attr source messageAge(txPk)
attr title "End-to-end latency (transmitted), stats"
attr unit s
statistic test_eth.IP_zentral.bgIn txLatency:histogram
field count 11
field mean 0.00026344545454545
field stddev 3.7097955836849e-005
field min 0.00025226
field max 0.0003753
field sum 0.0028979
field sqrsum 7.77201166e-007
attr interpolationmode none
attr source messageAge(txPk)
attr title "End-to-end latency (transmitted), histogram"
attr unit s
bin	-inf	0
bin	0.00022	0
bin	0.000222	0
bin	0.000224	0
bin	0.000226	0
bin	0.000228	0
bin	0.00023	0
bin	0.000232	0
bin	0.000234	0
bin	0.000236	0
bin	0.000238	0
bin	0.00024	0
bin	0.000242	0
bin	0.000244	0
bin	0.000246	0
bin	0.000248	0
bin	0.00025	0
bin	0.000252	10
bin	0.000254	0
bin	0.000256	0
bin	0.000258	0
bin	0.00026	0
bin	0.000262	0
bin	0.000264	0
bin	0.000266	0
bin	0.000268	0
bin	0.00027	0
bin	0.000272	0
bin	0.000274	0
bin	0.000276	0
bin	0.000278	0
bin	0.00028	0
bin	0.000282	0
bin	0.000284	0
bin	0.000286	0
bin	0.000288	0
bin	0.00029	0
bin	0.000292	0
bin	0.000294	0
bin	0.000296	0
bin	0.000298	0
bin	0.0003	0
bin	0.000302	0
bin	0.000304	0
bin	0.000306	0
bin	0.000308	0
bin	0.00031	0
bin	0.000312	0
bin	0.000314	0
bin	0.000316	0
bin	0.000318	0
bin	0.00032	0
bin	0.000322	0
bin	0.000324	0
bin	0.000326	0
bin	0.000328	0
bin	0.00033	0
bin	0.000332	0
bin	0.000334	0
bin	0.000336	0
bin	0.000338	0
bin	0.00034	0
bin	0.000342	0
bin	0.000344	0
bin	0.000346	0
bin	0.000348	0
bin	0.00035	0
bin	0.000352	0
bin	0.000354	0
bin	0.000356	0
bin	0.000358	0
bin	0.00036	0
bin	0.000362	0
bin	0.000364	0
bin	0.000366	0
bin	0.000368	0
bin	0.00037	0
bin	0.000372	0
bin	0.000374	1
bin	0.000376	0
bin	0.000378	0
bin	0.00038	0
bin	0.000382	0
bin	0.000384	0
bin	0.000386	0
bin	0.000388	0
bin	0.00039	0
bin	0.000392	0
bin	0.000394	0
bin	0.000396	0
bin	0.000398	0
bin	0.0004	0
bin	0.000402	0
bin	0.000404	0
bin	0.000406	0
bin	0.000408	0
scalar test_eth.IP_zentral.bgOut dropped:count 0
attr source dropped
attr title "Dropped frames, count"
attr unit packets
scalar test_eth.IP_zentral.bgOut rxPk:count 5
attr source rxPk
attr title "Received Packets, count"
attr unit packets
scalar test_eth.IP_zentral.bgOut rxBytes:sum(packetBytes) 7590
attr interpolationmode none
attr source rxPk
attr title "Received Bytes, sum(packetBytes)"
attr unit B
statistic test_eth.IP_zentral.bgOut rxBytes:histogram(packetBytes)
field count 5
field mean 1518
field stddev 0
field min 1518
field max 1518
field sum 7590
field sqrsum 11521620
attr interpolationmode none
attr source rxPk
attr title "Received Bytes, histogram(packetBytes)"
attr unit B
bin	-inf	0
bin	1517	0
bin	1518	5
bin	1519	0
statistic test_eth.IP_zentral.bgOut rxLatency:stats
field count 5
field mean 0
field stddev 0
field min 0
field max 0
field sum 0
field sqrsum 0
attr interpolationmode none
attr source messageAge(rxPk)
attr title "End-to-end latency (received), stats"
attr unit s
statistic test_eth.IP_zentral.bgOut rxLatency:histogram
field count 5
field mean 0
field stddev 0
field min 0
field max 0
field sum 0
field sqrsum 0
attr interpolationmode none
attr source messageAge(rxPk)
attr title "End-to-end latency (received), histogram"
attr unit s
bin	-inf	0
bin	-0.5	0
bin	-0.48	0
bin	-0.46	0
bin	-0.44	0
bin	-0.42	0
bin	-0.4	0
bin	-0.38	0
bin	-0.36	0
bin	-0.34	0
bin	-0.32	0
bin	-0.3	0
bin	-0.28	0
bin	-0.26	0
bin	-0.24	0
bin	-0.22	0
bin	-0.2	0
bin	-0.18	0
bin	-0.16	0
bin	-0.14	0
bin	-0.12	0
bin	-0.1	0
bin	-0.08	0
bin	-0.06	0
bin	-0.04	0
bin	-0.02	0
bin	0	5
bin	0.02	0
bin	0.04	0
bin	0.06	0
bin	0.08	0
bin	0.1	0
bin	0.12	0
bin	0.14	0
bin	0.16	0
bin	0.18	0
bin	0.2	0
bin	0.22	0
bin	0.24	0
bin	0.26	0
bin	0.28	0
bin	0.3	0
bin	0.32	0
bin	0.34	0
bin	0.36	0
bin	0.38	0
bin	0.4	0
bin	0.42	0
bin	0.44	0
bin	0.46	0
bin	0.48	0
bin	0.5	0
scalar test_eth.IP_zentral.bgOut txPk:count 5
attr source txPk
attr title "Transmitted Packets, count"
attr unit packets
scalar test_eth.IP_zentral.bgOut txBytes:sum(packetBytes) 7590
attr interpolationmode none
attr source txPk
attr title "Transmitted Bytes, sum(packetBytes)"
attr unit B
statistic test_eth.IP_zentral.bgOut txBytes:histogram(packetBytes)
field count 5
field mean 1518
field stddev 0
field min 1518
field max 1518
field sum 7590
field sqrsum 11521620
attr interpolationmode none
attr source txPk
attr title "Transmitted Bytes, histogram(packetBytes)"
attr unit B
bin	-inf	0
bin	1517	0
bin	1518	5
bin	1519	0
statistic test_eth.IP_zentral.bgOut txLatency:stats
field count 5
field mean 0
field stddev 0
field min 0
field max 0
field sum 0
field sqrsum 0
attr interpolationmode none
attr source messageAge(txPk)
attr title "End-to-end latency (transmitted), stats"
attr unit s
statistic test_eth.IP_zentral.bgOut txLatency:histogram
field count 5
field mean 0
field stddev 0
field min 0
field max 0
field sum 0
field sqrsum 0
attr interpolationmode none
attr source messageAge(txPk)
attr title "End-to-end latency (transmitted), histogram"
attr unit s
bin	-inf	0
bin	-0.5	0
bin	-0.48	0
bin	-0.46	0
bin	-0.44	0
bin	-0.42	0
bin	-0.4	0
bin	-0.38	0
bin	-0.36	0
bin	-0.34	0
bin	-0.32	0
bin	-0.3	0
bin	-0.28	0
bin	-0.26	0
bin	-0.24	0
bin	-0.22	0
bin	-0.2	0
bin	-0.18	0
bin	-0.16	0
bin	-0.14	0
bin	-0.12	0
bin	-0.1	0
bin	-0.08	0
bin	-0.06	0
bin	-0.04	0
bin	-0.02	0
bin	0	5
bin	0.02	0
bin	0.04	0
bin	0.06	0
bin	0.08	0
bin	0.1	0
bin	0.12	0
bin	0.14	0
bin	0.16	0
bin	0.18	0
bin	0.2	0
bin	0.22	0
bin	0.24	0
bin	0.26	0
bin	0.28	0
bin	0.3	0
bin	0.32	0
bin	0.34	0
bin	0.36	0
bin	0.38	0
bin	0.4	0
bin	0.42	0
bin	0.44	0
bin	0.46	0
bin	0.48	0
bin	0.5	0
statistic test_eth.IP_1.phy[0].shaper q7QueueSize:stats
field count 1
field mean 0
field stddev nan
field min 0
field max 0
field sum 0
field sqrsum 0
attr interpolationmode sample-hold
attr title "Q-Queue Size (q7QueueSize)"
attr unit B
statistic test_eth.IP_1.phy[0].shaper q7QueueLength:stats
field count 1
field mean 0
field stddev nan
field min 0
field max 0
field sum 0
field sqrsum 0
attr interpolationmode sample-hold
attr title "Q-Queue Length (q7QueueLength)"
attr unit packets
statistic test_eth.IP_1.phy[0].shaper q6QueueSize:stats
field count 1
field mean 0
field stddev nan
field min 0
field max 0
field sum 0
field sqrsum 0
attr interpolationmode sample-hold
attr title "Q-Queue Size (q6QueueSize)"
attr unit B
statistic test_eth.IP_1.phy[0].shaper q6QueueLength:stats
field count 1
field mean 0
field stddev nan
field min 0
field max 0
field sum 0
field sqrsum 0
attr interpolationmode sample-hold
attr title "Q-Queue Length (q6QueueLength)"
attr unit packets
statistic test_eth.IP_1.phy[0].shaper q5QueueSize:stats
field count 1
field mean 0
field stddev nan
field min 0
field max 0
field sum 0
field sqrsum 0
attr interpolationmode sample-hold
attr title "Q-Queue Size (q5QueueSize)"
attr unit B
statistic test_eth.IP_1.phy[0].shaper q5QueueLength:stats
field count 1
field mean 0
field stddev nan
field min 0
field max 0
field sum 0
field sqrsum 0
attr interpolationmode sample-hold
attr title "Q-Queue Length (q5QueueLength)"
attr unit packets
statistic test_eth.IP_1.phy[0].shaper q4QueueSize:stats
field count 1
field mean 0
field stddev nan
field min 0
field max 0
field sum 0
field sqrsum 0
attr interpolationmode sample-hold
attr title "Q-Queue Size (q4QueueSize)"
attr unit B
statistic test_eth.IP_1.phy[0].shaper q4QueueLength:stats
field count 1
field mean 0
field stddev nan
field min 0
field max 0
field sum 0
field sqrsum 0
attr interpolationmode sample-hold
attr title "Q-Queue Length (q4QueueLength)"
attr unit packets
statistic test_eth.IP_1.phy[0].shaper q3QueueSize:stats
field count 1
field mean 0
field stddev nan
field min 0
field max 0
field sum 0
field sqrsum 0
attr interpolationmode sample-hold
attr title "Q-Queue Size (q3QueueSize)"
attr unit B
statistic test_eth.IP_1.phy[0].shaper q3QueueLength:stats
field count 1
field mean 0
field stddev nan
field min 0
field max 0
field sum 0
field sqrsum 0
attr interpolationmode sample-hold
attr title "Q-Queue Length (q3QueueLength)"
attr unit packets
statistic test_eth.IP_1.phy[0].shaper q2QueueSize:stats
field count 1
field mean 0
field stddev nan
field min 0
field max 0
field sum 0
field sqrsum 0
attr interpolationmode sample-hold
attr title "Q-Queue Size (q2QueueSize)"
attr unit B
statistic test_eth.IP_1.phy[0].shaper q2QueueLength:stats
field count 1
field mean 0
field stddev nan
field min 0
field max 0
field sum 0
field sqrsum 0
attr interpolationmode sample-hold
attr title "Q-Queue Length (q2QueueLength)"
attr unit packets
statistic test_eth.IP_1.phy[0].shaper q1QueueSize:stats
field count 1
field mean 0
field stddev nan
field min 0
field max 0
field sum 0
field sqrsum 0
attr interpolationmode sample-hold
attr title "Q-Queue Size (q1QueueSize)"
attr unit B
statistic test_eth.IP_1.phy[0].shaper q1QueueLength:stats
field count 1
field mean 0
field stddev nan
field min 0
field max 0
field sum 0
field sqrsum 0
attr interpolationmode sample-hold
attr title "Q-Queue Length (q1QueueLength)"
attr unit packets
statistic test_eth.IP_1.phy[0].shaper q0QueueSize:stats
field count 1
field mean 0
field stddev nan
field min 0
field max 0
field sum 0
field sqrsum 0
attr interpolationmode sample-hold
attr title "Q-Queue Size (q0QueueSize)"
attr unit B
statistic test_eth.IP_1.phy[0].shaper q0QueueLength:stats
field count 1
field mean 0
field stddev nan
field min 0
field max 0
field sum 0
field sqrsum 0
attr interpolationmode sample-hold
attr title "Q-Queue Length (q0QueueLength)"
attr unit packets
statistic test_eth.IP_1.phy[0].inControl rxLatency:stats
field count 2
field mean 0.00025226
field stddev 0
field min 0.00025226
field max 0.00025226
field sum 0.00050452
field sqrsum 1.272702152e-007
attr interpolationmode none
attr source messageAge(rxPk)
attr title "End-to-end latency (received), stats"
attr unit s
statistic test_eth.IP_1.phy[0].inControl rxLatency:histogram
field count 2
field mean 0.00025226
field stddev 0
field min 0.00025226
field max 0.00025226
field sum 0.00050452
field sqrsum 1.272702152e-007
attr interpolationmode none
attr source messageAge(rxPk)
attr title "End-to-end latency (received), histogram"
attr unit s
bin	-inf	0
bin	0	2
bin	0.01	0
bin	0.02	0
bin	0.03	0
bin	0.04	0
bin	0.05	0
bin	0.06	0
bin	0.07	0
bin	0.08	0
bin	0.09	0
bin	0.1	0
bin	0.11	0
bin	0.12	0
bin	0.13	0
bin	0.14	0
bin	0.15	0
bin	0.16	0
bin	0.17	0
bin	0.18	0
bin	0.19	0
bin	0.2	0
bin	0.21	0
bin	0.22	0
bin	0.23	0
bin	0.24	0
bin	0.25	0
bin	0.26	0
bin	0.27	0
bin	0.28	0
bin	0.29	0
bin	0.3	0
bin	0.31	0
bin	0.32	0
bin	0.33	0
bin	0.34	0
bin	0.35	0
bin	0.36	0
bin	0.37	0
bin	0.38	0
bin	0.39	0
bin	0.4	0
bin	0.41	0
bin	0.42	0
bin	0.43	0
bin	0.44	0
bin	0.45	0
bin	0.46	0
bin	0.47	0
bin	0.48	0
bin	0.49	0
bin	0.5	0
bin	0.51	0
scalar test_eth.IP_1.phy[0].mac "simulated time" 0.400320112901
scalar test_eth.IP_1.phy[0].mac full-duplex 1
scalar test_eth.IP_1.phy[0].mac "frames/sec sent" 22.482008047959
scalar test_eth.IP_1.phy[0].mac "frames/sec rcvd" 4.9960017884353
scalar test_eth.IP_1.phy[0].mac "bits/sec sent" 273021.50573441
scalar test_eth.IP_1.phy[0].mac "bits/sec rcvd" 60671.445718758
scalar test_eth.IP_1.phy[0].mac "rx channel idle (%)" 99.939008810167
scalar test_eth.IP_1.phy[0].mac "rx channel utilization (%)" 0.060991189833218
scalar test_eth.IP_1.phy[0].mac rxPkFromHL:count 9
attr interpolationmode none
attr source rxPkFromHL
attr title "packet bytes from higher layer, count"
scalar test_eth.IP_1.phy[0].mac rxPkFromHL:sum(packetBytes) 13662
attr interpolationmode none
attr source rxPkFromHL
attr title "packet bytes from higher layer, sum(packetBytes)"
scalar test_eth.IP_1.phy[0].mac rxPausePkUnits:count 0
attr interpolationmode none
attr title "pause units received, count"
scalar test_eth.IP_1.phy[0].mac rxPausePkUnits:sum 0
attr interpolationmode none
attr title "pause units received, sum"
scalar test_eth.IP_1.phy[0].mac txPausePkUnits:count 0
attr interpolationmode none
attr title "pause units sent, count"
scalar test_eth.IP_1.phy[0].mac txPausePkUnits:sum 0
attr interpolationmode none
attr title "pause units sent, sum"
scalar test_eth.IP_1.phy[0].mac txPk:count 9
attr interpolationmode none
attr source txPk
attr title "packets transmitted, count"
scalar test_eth.IP_1.phy[0].mac txPk:sum(packetBytes) 13662
attr interpolationmode none
attr source txPk
attr title "packets transmitted, sum(packetBytes)"
scalar test_eth.IP_1.phy[0].mac droppedPkNotForUs:count 0
attr interpolationmode none
attr source dropPkNotForUs
attr title "packets dropped/not for us, count"
scalar test_eth.IP_1.phy[0].mac droppedPkNotForUs:sum(packetBytes) 0
attr interpolationmode none
attr source dropPkNotForUs
attr title "packets dropped/not for us, sum(packetBytes)"
scalar test_eth.IP_1.phy[0].mac droppedPkBitError:count 0
attr interpolationmode none
attr source dropPkBitError
attr title "packets dropped/bit error, count"
scalar test_eth.IP_1.phy[0].mac droppedPkBitError:sum(packetBytes) 0
attr interpolationmode none
attr source dropPkBitError
attr title "packets dropped/bit error, sum(packetBytes)"
scalar test_eth.IP_1.phy[0].mac droppedPkIfaceDown:count 0
attr interpolationmode none
attr source dropPkIfaceDown
attr title "packets dropped/interface down, count"
scalar test_eth.IP_1.phy[0].mac droppedPkIfaceDown:sum(packetBytes) 0
attr interpolationmode none
attr source dropPkIfaceDown
attr title "packets dropped/interface down, sum(packetBytes)"
scalar test_eth.IP_1.phy[0].mac rxPkOk:count 2
attr interpolationmode none
attr source rxPkOk
attr title "packets received OK, count"
scalar test_eth.IP_1.phy[0].mac rxPkOk:sum(packetBytes) 3036
attr interpolationmode none
attr source rxPkOk
attr title "packets received OK, sum(packetBytes)"
scalar test_eth.IP_1.phy[0].mac passedUpPk:count 2
attr interpolationmode none
attr source packetSentToUpper
attr title "packets passed to higher layer, count"
scalar test_eth.IP_1.phy[0].mac passedUpPk:sum(packetBytes) 3036
attr interpolationmode none
attr source packetSentToUpper
attr title "packets passed to higher layer, sum(packetBytes)"
scalar test_eth.IP_1.encap pauseSent:count 0
attr title "pause sent, count"
scalar test_eth.IP_1.encap pauseSent:sum 0
attr title "pause sent, sum"
scalar test_eth.IP_1.encap decapPk:count 0
attr interpolationmode none
attr source decapPk
attr title "packets decapsulated, count"
scalar test_eth.IP_1.encap decapPk:sum(packetBytes) 0
attr interpolationmode none
attr source decapPk
attr title "packets decapsulated, sum(packetBytes)"
scalar test_eth.IP_1.encap encapPk:count 0
attr interpolationmode none
attr source encapPk
attr title "packets encapsulated, count"
scalar test_eth.IP_1.encap encapPk:sum(packetBytes) 0
attr interpolationmode none
attr source encapPk
attr title "packets encapsulated, sum(packetBytes)"
scalar test_eth.IP_1.scheduler.period[0] numberOfCycles:count 133
attr interpolationmode none
attr source newCycle
attr title "Number of cycle, count"
statistic test_eth.IP_1.app[0] sendIntervalOverTime:stats
field count 9
field mean 0.05
field stddev 0
field min 0.05
field max 0.05
field sum 0.45
field sqrsum 0.0225
attr interpolationmode linear
attr source intervalSignal
attr title "send interval over time, stats"
attr unit s
statistic test_eth.IP_1.app[0] sendIntervalOverTime:histogram
field count 9
field mean 0.05
field stddev 0
field min 0.05
field max 0.05
field sum 0.45
field sqrsum 0.0225
attr interpolationmode linear
attr source intervalSignal
attr title "send interval over time, histogram"
attr unit s
bin	-inf	0
bin	0	0
bin	0.01	0
bin	0.02	0
bin	0.03	0
bin	0.04	9
bin	0.05	0
bin	0.06	0
bin	0.07	0
bin	0.08	0
bin	0.09	0
bin	0.1	0
bin	0.11	0
bin	0.12	0
bin	0.13	0
bin	0.14	0
bin	0.15	0
bin	0.16	0
bin	0.17	0
bin	0.18	0
bin	0.19	0
bin	0.2	0
bin	0.21	0
bin	0.22	0
bin	0.23	0
bin	0.24	0
bin	0.25	0
bin	0.26	0
bin	0.27	0
bin	0.28	0
bin	0.29	0
bin	0.3	0
bin	0.31	0
bin	0.32	0
bin	0.33	0
bin	0.34	0
bin	0.35	0
bin	0.36	0
bin	0.37	0
bin	0.38	0
bin	0.39	0
bin	0.4	0
bin	0.41	0
bin	0.42	0
bin	0.43	0
bin	0.44	0
bin	0.45	0
bin	0.46	0
bin	0.47	0
bin	0.48	0
bin	0.49	0
bin	0.5	0
bin	0.51	0
bin	0.52	0
bin	0.53	0
bin	0.54	0
bin	0.55	0
statistic test_eth.IP_1.app[0] payloadOverTime:stats
field count 9
field mean 1500
field stddev 0
field min 1500
field max 1500
field sum 13500
field sqrsum 20250000
attr interpolationmode linear
attr source payloadSignal
attr title "payload over time, stats"
attr unit B
statistic test_eth.IP_1.app[0] payloadOverTime:histogram
field count 9
field mean 1500
field stddev 0
field min 1500
field max 1500
field sum 13500
field sqrsum 20250000
attr interpolationmode linear
attr source payloadSignal
attr title "payload over time, histogram"
attr unit B
bin	-inf	0
bin	1499	0
bin	1500	9
bin	1501	0
scalar test_eth.IP_1.bgIn dropped:count 0
attr source dropped
attr title "Dropped frames, count"
attr unit packets
scalar test_eth.IP_1.bgIn rxPk:count 1
attr source rxPk
attr title "Received Packets, count"
attr unit packets
scalar test_eth.IP_1.bgIn rxBytes:sum(packetBytes) 1518
attr interpolationmode none
attr source rxPk
attr title "Received Bytes, sum(packetBytes)"
attr unit B
statistic test_eth.IP_1.bgIn rxBytes:histogram(packetBytes)
field count 1
field mean 1518
field stddev nan
field min 1518
field max 1518
field sum 1518
field sqrsum 2304324
attr interpolationmode none
attr source rxPk
attr title "Received Bytes, histogram(packetBytes)"
attr unit B
bin	-inf	0
bin	1517	0
bin	1518	1
bin	1519	0
statistic test_eth.IP_1.bgIn rxLatency:stats
field count 1
field mean 0.00025226
field stddev nan
field min 0.00025226
field max 0.00025226
field sum 0.00025226
field sqrsum 6.36351076e-008
attr interpolationmode none
attr source messageAge(rxPk)
attr title "End-to-end latency (received), stats"
attr unit s
statistic test_eth.IP_1.bgIn rxLatency:histogram
field count 1
field mean 0.00025226
field stddev nan
field min 0.00025226
field max 0.00025226
field sum 0.00025226
field sqrsum 6.36351076e-008
attr interpolationmode none
attr source messageAge(rxPk)
attr title "End-to-end latency (received), histogram"
attr unit s
bin	-inf	0
bin	0	1
bin	0.01	0
bin	0.02	0
bin	0.03	0
bin	0.04	0
bin	0.05	0
bin	0.06	0
bin	0.07	0
bin	0.08	0
bin	0.09	0
bin	0.1	0
bin	0.11	0
bin	0.12	0
bin	0.13	0
bin	0.14	0
bin	0.15	0
bin	0.16	0
bin	0.17	0
bin	0.18	0
bin	0.19	0
bin	0.2	0
bin	0.21	0
bin	0.22	0
bin	0.23	0
bin	0.24	0
bin	0.25	0
bin	0.26	0
bin	0.27	0
bin	0.28	0
bin	0.29	0
bin	0.3	0
bin	0.31	0
bin	0.32	0
bin	0.33	0
bin	0.34	0
bin	0.35	0
bin	0.36	0
bin	0.37	0
bin	0.38	0
bin	0.39	0
bin	0.4	0
bin	0.41	0
bin	0.42	0
bin	0.43	0
bin	0.44	0
bin	0.45	0
bin	0.46	0
bin	0.47	0
bin	0.48	0
bin	0.49	0
bin	0.5	0
bin	0.51	0
scalar test_eth.IP_1.bgIn txPk:count 0
attr source txPk
attr title "Transmitted Packets, count"
attr unit packets
scalar test_eth.IP_1.bgIn txBytes:sum(packetBytes) 0
attr interpolationmode none
attr source txPk
attr title "Transmitted Bytes, sum(packetBytes)"
attr unit B
statistic test_eth.IP_1.bgIn txBytes:histogram(packetBytes)
field count 0
field mean nan
field stddev nan
field min nan
field max nan
field sum 0
field sqrsum 0
attr interpolationmode none
attr source txPk
[...]
statistic test_eth.IP_2.phy[0].shaper q2QueueLength:stats
field count 1
field mean 0
field stddev nan
field min 0
field max 0
field sum 0
field sqrsum 0
attr interpolationmode sample-hold
attr title "Q-Queue Length (q2QueueLength)"
attr unit packets
statistic test_eth.IP_2.phy[0].shaper q1QueueSize:stats
field count 1
field mean 0
field stddev nan
field min 0
field max 0
field sum 0
field sqrsum 0
attr interpolationmode sample-hold
attr title "Q-Queue Size (q1QueueSize)"
attr unit B
statistic test_eth.IP_2.phy[0].shaper q1QueueLength:stats
field count 1
field mean 0
field stddev nan
field min 0
field max 0
field sum 0
field sqrsum 0
attr interpolationmode sample-hold
attr title "Q-Queue Length (q1QueueLength)"
attr unit packets
statistic test_eth.IP_2.phy[0].shaper q0QueueSize:stats
field count 1
field mean 0
field stddev nan
field min 0
field max 0
field sum 0
field sqrsum 0
attr interpolationmode sample-hold
attr title "Q-Queue Size (q0QueueSize)"
attr unit B
statistic test_eth.IP_2.phy[0].shaper q0QueueLength:stats
field count 1
field mean 0
field stddev nan
field min 0
field max 0
field sum 0
field sqrsum 0
attr interpolationmode sample-hold
attr title "Q-Queue Length (q0QueueLength)"
attr unit packets
statistic test_eth.IP_2.phy[0].inControl rxLatency:stats
field count 4
field mean 0.00025226
field stddev 0
field min 0.00025226
field max 0.00025226
field sum 0.00100904
field sqrsum 2.545404304e-007
attr interpolationmode none
attr source messageAge(rxPk)
attr title "End-to-end latency (received), stats"
attr unit s
statistic test_eth.IP_2.phy[0].inControl rxLatency:histogram
field count 4
field mean 0.00025226
field stddev 0
field min 0.00025226
field max 0.00025226
field sum 0.00100904
field sqrsum 2.545404304e-007
attr interpolationmode none
attr source messageAge(rxPk)
attr title "End-to-end latency (received), histogram"
attr unit s
bin	-inf	0
bin	0	4
bin	0.01	0
bin	0.02	0
bin	0.03	0
bin	0.04	0
bin	0.05	0
bin	0.06	0
bin	0.07	0
bin	0.08	0
bin	0.09	0
bin	0.1	0
bin	0.11	0
bin	0.12	0
bin	0.13	0
bin	0.14	0
bin	0.15	0
bin	0.16	0
bin	0.17	0
bin	0.18	0
bin	0.19	0
bin	0.2	0
bin	0.21	0
bin	0.22	0
bin	0.23	0
bin	0.24	0
bin	0.25	0
bin	0.26	0
bin	0.27	0
bin	0.28	0
bin	0.29	0
bin	0.3	0
bin	0.31	0
bin	0.32	0
bin	0.33	0
bin	0.34	0
bin	0.35	0
bin	0.36	0
bin	0.37	0
bin	0.38	0
bin	0.39	0
bin	0.4	0
bin	0.41	0
bin	0.42	0
bin	0.43	0
bin	0.44	0
bin	0.45	0
bin	0.46	0
bin	0.47	0
bin	0.48	0
bin	0.49	0
bin	0.5	0
bin	0.51	0
scalar test_eth.IP_2.phy[0].mac "simulated time" 0.400320112901
scalar test_eth.IP_2.phy[0].mac full-duplex 1
scalar test_eth.IP_2.phy[0].mac "frames/sec sent" 7.4940026826529
scalar test_eth.IP_2.phy[0].mac "frames/sec rcvd" 9.9920035768705
scalar test_eth.IP_2.phy[0].mac "bits/sec sent" 91007.168578137
scalar test_eth.IP_2.phy[0].mac "bits/sec rcvd" 121342.89143752
scalar test_eth.IP_2.phy[0].mac "rx channel idle (%)" 99.878017620334
scalar test_eth.IP_2.phy[0].mac "rx channel utilization (%)" 0.12198237966644
scalar test_eth.IP_2.phy[0].mac rxPkFromHL:count 3
attr interpolationmode none
attr source rxPkFromHL
attr title "packet bytes from higher layer, count"
scalar test_eth.IP_2.phy[0].mac rxPkFromHL:sum(packetBytes) 4554
attr interpolationmode none
attr source rxPkFromHL
attr title "packet bytes from higher layer, sum(packetBytes)"
scalar test_eth.IP_2.phy[0].mac rxPausePkUnits:count 0
attr interpolationmode none
attr title "pause units received, count"
scalar test_eth.IP_2.phy[0].mac rxPausePkUnits:sum 0
attr interpolationmode none
attr title "pause units received, sum"
scalar test_eth.IP_2.phy[0].mac txPausePkUnits:count 0
attr interpolationmode none
attr title "pause units sent, count"
scalar test_eth.IP_2.phy[0].mac txPausePkUnits:sum 0
attr interpolationmode none
attr title "pause units sent, sum"
scalar test_eth.IP_2.phy[0].mac txPk:count 3
attr interpolationmode none
attr source txPk
attr title "packets transmitted, count"
scalar test_eth.IP_2.phy[0].mac txPk:sum(packetBytes) 4554
attr interpolationmode none
attr source txPk
attr title "packets transmitted, sum(packetBytes)"
scalar test_eth.IP_2.phy[0].mac droppedPkNotForUs:count 0
attr interpolationmode none
attr source dropPkNotForUs
attr title "packets dropped/not for us, count"
scalar test_eth.IP_2.phy[0].mac droppedPkNotForUs:sum(packetBytes) 0
attr interpolationmode none
attr source dropPkNotForUs
attr title "packets dropped/not for us, sum(packetBytes)"
scalar test_eth.IP_2.phy[0].mac droppedPkBitError:count 0
attr interpolationmode none
attr source dropPkBitError
attr title "packets dropped/bit error, count"
scalar test_eth.IP_2.phy[0].mac droppedPkBitError:sum(packetBytes) 0
attr interpolationmode none
attr source dropPkBitError
attr title "packets dropped/bit error, sum(packetBytes)"
scalar test_eth.IP_2.phy[0].mac droppedPkIfaceDown:count 0
attr interpolationmode none
attr source dropPkIfaceDown
attr title "packets dropped/interface down, count"
scalar test_eth.IP_2.phy[0].mac droppedPkIfaceDown:sum(packetBytes) 0
attr interpolationmode none
attr source dropPkIfaceDown
attr title "packets dropped/interface down, sum(packetBytes)"
scalar test_eth.IP_2.phy[0].mac rxPkOk:count 4
attr interpolationmode none
attr source rxPkOk
attr title "packets received OK, count"
scalar test_eth.IP_2.phy[0].mac rxPkOk:sum(packetBytes) 6072
attr interpolationmode none
attr source rxPkOk
attr title "packets received OK, sum(packetBytes)"
scalar test_eth.IP_2.phy[0].mac passedUpPk:count 4
attr interpolationmode none
attr source packetSentToUpper
attr title "packets passed to higher layer, count"
scalar test_eth.IP_2.phy[0].mac passedUpPk:sum(packetBytes) 6072
attr interpolationmode none
attr source packetSentToUpper
attr title "packets passed to higher layer, sum(packetBytes)"
scalar test_eth.IP_2.encap pauseSent:count 0
attr title "pause sent, count"
scalar test_eth.IP_2.encap pauseSent:sum 0
attr title "pause sent, sum"
scalar test_eth.IP_2.encap decapPk:count 0
attr interpolationmode none
attr source decapPk
attr title "packets decapsulated, count"
scalar test_eth.IP_2.encap decapPk:sum(packetBytes) 0
attr interpolationmode none
attr source decapPk
attr title "packets decapsulated, sum(packetBytes)"
scalar test_eth.IP_2.encap encapPk:count 0
attr interpolationmode none
attr source encapPk
attr title "packets encapsulated, count"
scalar test_eth.IP_2.encap encapPk:sum(packetBytes) 0
attr interpolationmode none
attr source encapPk
attr title "packets encapsulated, sum(packetBytes)"
scalar test_eth.IP_2.scheduler.period[0] numberOfCycles:count 133
attr interpolationmode none
attr source newCycle
attr title "Number of cycle, count"
scalar test_eth.IP_2.app[0] rxPk:count 4
attr source rxPk
attr title "Received Packets, count"
attr unit packets
scalar test_eth.IP_2.app[0] rxBytes:sum(packetBytes) 6072
attr interpolationmode none
attr source rxPk
attr title "Received Bytes, sum(packetBytes)"
attr unit B
statistic test_eth.IP_2.app[0] rxBytes:histogram(packetBytes)
field count 4
field mean 1518
field stddev 0
field min 1518
field max 1518
field sum 6072
field sqrsum 9217296
attr interpolationmode none
attr source rxPk
attr title "Received Bytes, histogram(packetBytes)"
attr unit B
bin	-inf	0
bin	1517	0
bin	1518	4
bin	1519	0
statistic test_eth.IP_2.app[0] rxLatency:stats
field count 4
field mean 0.00025226
field stddev 0
field min 0.00025226
field max 0.00025226
field sum 0.00100904
field sqrsum 2.545404304e-007
attr interpolationmode none
attr source messageAge(rxPk)
attr title "End-to-end latency, stats"
attr unit s
statistic test_eth.IP_2.app[0] rxLatency:histogram
field count 4
field mean 0.00025226
field stddev 0
field min 0.00025226
field max 0.00025226
field sum 0.00100904
field sqrsum 2.545404304e-007
attr interpolationmode none
attr source messageAge(rxPk)
attr title "End-to-end latency, histogram"
attr unit s
bin	-inf	0
bin	0	4
bin	0.01	0
bin	0.02	0
bin	0.03	0
bin	0.04	0
bin	0.05	0
bin	0.06	0
bin	0.07	0
bin	0.08	0
bin	0.09	0
bin	0.1	0
bin	0.11	0
bin	0.12	0
bin	0.13	0
bin	0.14	0
bin	0.15	0
bin	0.16	0
bin	0.17	0
bin	0.18	0
bin	0.19	0
bin	0.2	0
bin	0.21	0
bin	0.22	0
bin	0.23	0
bin	0.24	0
bin	0.25	0
bin	0.26	0
bin	0.27	0
bin	0.28	0
bin	0.29	0
bin	0.3	0
bin	0.31	0
bin	0.32	0
bin	0.33	0
bin	0.34	0
bin	0.35	0
bin	0.36	0
bin	0.37	0
bin	0.38	0
bin	0.39	0
bin	0.4	0
bin	0.41	0
bin	0.42	0
bin	0.43	0
bin	0.44	0
bin	0.45	0
bin	0.46	0
bin	0.47	0
bin	0.48	0
bin	0.49	0
bin	0.5	0
bin	0.51	0
statistic test_eth.IP_2.app[0] rxLatencyInner:stats
field count 4
field mean 0.00025226
field stddev 0
field min 0.00025226
field max 0.00025226
field sum 0.00100904
field sqrsum 2.545404304e-007
attr interpolationmode none
attr source messageAge(innerMessage(rxPk))
attr title "End-to-end latency inner, stats"
attr unit s
statistic test_eth.IP_2.app[0] rxLatencyInner:histogram
field count 4
field mean 0.00025226
field stddev 0
field min 0.00025226
field max 0.00025226
field sum 0.00100904
field sqrsum 2.545404304e-007
attr interpolationmode none
attr source messageAge(innerMessage(rxPk))
attr title "End-to-end latency inner, histogram"
attr unit s
bin	-inf	0
bin	0	4
bin	0.01	0
bin	0.02	0
bin	0.03	0
bin	0.04	0
bin	0.05	0
bin	0.06	0
bin	0.07	0
bin	0.08	0
bin	0.09	0
bin	0.1	0
bin	0.11	0
bin	0.12	0
bin	0.13	0
bin	0.14	0
bin	0.15	0
bin	0.16	0
bin	0.17	0
bin	0.18	0
bin	0.19	0
bin	0.2	0
bin	0.21	0
bin	0.22	0
bin	0.23	0
bin	0.24	0
bin	0.25	0
bin	0.26	0
bin	0.27	0
bin	0.28	0
bin	0.29	0
bin	0.3	0
bin	0.31	0
bin	0.32	0
bin	0.33	0
bin	0.34	0
bin	0.35	0
bin	0.36	0
bin	0.37	0
bin	0.38	0
bin	0.39	0
bin	0.4	0
bin	0.41	0
bin	0.42	0
bin	0.43	0
bin	0.44	0
bin	0.45	0
bin	0.46	0
bin	0.47	0
bin	0.48	0
bin	0.49	0
bin	0.5	0
bin	0.51	0
statistic test_eth.IP_2.app[1] sendIntervalOverTime:stats
field count 2
field mean 0.4
field stddev 0
field min 0.4
field max 0.4
field sum 0.8
field sqrsum 0.32
attr interpolationmode linear
attr source intervalSignal
attr title "send interval over time, stats"
attr unit s
statistic test_eth.IP_2.app[1] sendIntervalOverTime:histogram
field count 2
field mean 0.4
field stddev 0
field min 0.4
field max 0.4
field sum 0.8
field sqrsum 0.32
attr interpolationmode linear
attr source intervalSignal
attr title "send interval over time, histogram"
attr unit s
bin	-inf	0
bin	0	0
bin	0.01	0
bin	0.02	0
bin	0.03	0
bin	0.04	0
bin	0.05	0
bin	0.06	0
bin	0.07	0
bin	0.08	0
bin	0.09	0
bin	0.1	0
bin	0.11	0
bin	0.12	0
bin	0.13	0
bin	0.14	0
bin	0.15	0
bin	0.16	0
bin	0.17	0
bin	0.18	0
bin	0.19	0
bin	0.2	0
bin	0.21	0
bin	0.22	0
bin	0.23	0
bin	0.24	0
bin	0.25	0
bin	0.26	0
bin	0.27	0
bin	0.28	0
bin	0.29	0
bin	0.3	0
bin	0.31	0
bin	0.32	0
bin	0.33	0
bin	0.34	0
bin	0.35	0
bin	0.36	0
bin	0.37	0
bin	0.38	0
bin	0.39	2
bin	0.4	0
bin	0.41	0
bin	0.42	0
bin	0.43	0
bin	0.44	0
bin	0.45	0
bin	0.46	0
bin	0.47	0
bin	0.48	0
bin	0.49	0
bin	0.5	0
bin	0.51	0
bin	0.52	0
bin	0.53	0
bin	0.54	0
bin	0.55	0
bin	0.56	0
bin	0.57	0
bin	0.58	0
bin	0.59	0
bin	0.6	0
bin	0.61	0
bin	0.62	0
bin	0.63	0
bin	0.64	0
bin	0.65	0
bin	0.66	0
bin	0.67	0
bin	0.68	0
bin	0.69	0
bin	0.7	0
bin	0.71	0
bin	0.72	0
bin	0.73	0
bin	0.74	0
bin	0.75	0
bin	0.76	0
bin	0.77	0
bin	0.78	0
bin	0.79	0
bin	0.8	0
bin	0.81	0
bin	0.82	0
bin	0.83	0
bin	0.84	0
bin	0.85	0
bin	0.86	0
bin	0.87	0
bin	0.88	0
bin	0.89	0
bin	0.9	0
statistic test_eth.IP_2.app[1] payloadOverTime:stats
field count 2
field mean 1500
field stddev 0
field min 1500
field max 1500
field sum 3000
field sqrsum 4500000
attr interpolationmode linear
attr source payloadSignal
attr title "payload over time, stats"
attr unit B
statistic test_eth.IP_2.app[1] payloadOverTime:histogram
field count 2
field mean 1500
field stddev 0
field min 1500
field max 1500
field sum 3000
field sqrsum 4500000
attr interpolationmode linear
attr source payloadSignal
attr title "payload over time, histogram"
attr unit B
bin	-inf	0
bin	1499	0
bin	1500	2
bin	1501	0
scalar test_eth.IP_2.bgIn dropped:count 0
attr source dropped
attr title "Dropped frames, count"
attr unit packets
scalar test_eth.IP_2.bgIn rxPk:count 4
attr source rxPk
attr title "Received Packets, count"
attr unit packets
scalar test_eth.IP_2.bgIn rxBytes:sum(packetBytes) 6072
attr interpolationmode none
attr source rxPk
attr title "Received Bytes, sum(packetBytes)"
attr unit B
statistic test_eth.IP_2.bgIn rxBytes:histogram(packetBytes)
field count 4
field mean 1518
field stddev 0
field min 1518
field max 1518
field sum 6072
field sqrsum 9217296
attr interpolationmode none
attr source rxPk
attr title "Received Bytes, histogram(packetBytes)"
attr unit B
bin	-inf	0
bin	1517	0
bin	1518	4
bin	1519	0
statistic test_eth.IP_2.bgIn rxLatency:stats
field count 4
field mean 0.00025226
field stddev 0
field min 0.00025226
field max 0.00025226
field sum 0.00100904
field sqrsum 2.545404304e-007
attr interpolationmode none
attr source messageAge(rxPk)
attr title "End-to-end latency (received), stats"
attr unit s
statistic test_eth.IP_2.bgIn rxLatency:histogram
field count 4
field mean 0.00025226
field stddev 0
field min 0.00025226
field max 0.00025226
field sum 0.00100904
field sqrsum 2.545404304e-007
attr interpolationmode none
attr source messageAge(rxPk)
attr title "End-to-end latency (received), histogram"
attr unit s
bin	-inf	0
bin	0	4
bin	0.01	0
bin	0.02	0
bin	0.03	0
bin	0.04	0
bin	0.05	0
bin	0.06	0
bin	0.07	0
bin	0.08	0
bin	0.09	0
bin	0.1	0
bin	0.11	0
bin	0.12	0
bin	0.13	0
bin	0.14	0
bin	0.15	0
bin	0.16	0
bin	0.17	0
bin	0.18	0
bin	0.19	0
bin	0.2	0
bin	0.21	0
bin	0.22	0
bin	0.23	0
bin	0.24	0
bin	0.25	0
bin	0.26	0
bin	0.27	0
bin	0.28	0
bin	0.29	0
bin	0.3	0
bin	0.31	0
bin	0.32	0
bin	0.33	0
bin	0.34	0
bin	0.35	0
bin	0.36	0
bin	0.37	0
bin	0.38	0
bin	0.39	0
bin	0.4	0
bin	0.41	0
bin	0.42	0
bin	0.43	0
bin	0.44	0
bin	0.45	0
bin	0.46	0
bin	0.47	0
bin	0.48	0
bin	0.49	0
bin	0.5	0
bin	0.51	0
scalar test_eth.IP_2.bgIn txPk:count 4
attr source txPk
attr title "Transmitted Packets, count"
attr unit packets
scalar test_eth.IP_2.bgIn txBytes:sum(packetBytes) 6072
attr interpolationmode none
attr source txPk
attr title "Transmitted Bytes, sum(packetBytes)"
attr unit B
statistic test_eth.IP_2.bgIn txBytes:histogram(packetBytes)
field count 4
field mean 1518
field stddev 0
field min 1518
field max 1518
field sum 6072
field sqrsum 9217296
attr interpolationmode none
attr source txPk
attr title "Transmitted Bytes, histogram(packetBytes)"
attr unit B
bin	-inf	0
bin	1517	0
bin	1518	4
bin	1519	0
statistic test_eth.IP_2.bgIn txLatency:stats
field count 4
field mean 0.00025226
field stddev 0
field min 0.00025226
field max 0.00025226
field sum 0.00100904
field sqrsum 2.545404304e-007
attr interpolationmode none
attr source messageAge(txPk)
attr title "End-to-end latency (transmitted), stats"
attr unit s
statistic test_eth.IP_2.bgIn txLatency:histogram
field count 4
field mean 0.00025226
field stddev 0
field min 0.00025226
field max 0.00025226
field sum 0.00100904
field sqrsum 2.545404304e-007
attr interpolationmode none
attr source messageAge(txPk)
attr title "End-to-end latency (transmitted), histogram"
attr unit s
bin	-inf	0
bin	0	4
bin	0.01	0
bin	0.02	0
bin	0.03	0
bin	0.04	0
bin	0.05	0
bin	0.06	0
bin	0.07	0
bin	0.08	0
bin	0.09	0
bin	0.1	0
bin	0.11	0
bin	0.12	0
bin	0.13	0
bin	0.14	0
bin	0.15	0
bin	0.16	0
bin	0.17	0
bin	0.18	0
bin	0.19	0
bin	0.2	0
bin	0.21	0
bin	0.22	0
bin	0.23	0
bin	0.24	0
bin	0.25	0
bin	0.26	0
bin	0.27	0
bin	0.28	0
bin	0.29	0
bin	0.3	0
bin	0.31	0
bin	0.32	0
bin	0.33	0
bin	0.34	0
bin	0.35	0
bin	0.36	0
bin	0.37	0
bin	0.38	0
bin	0.39	0
bin	0.4	0
bin	0.41	0
bin	0.42	0
bin	0.43	0
bin	0.44	0
bin	0.45	0
bin	0.46	0
bin	0.47	0
bin	0.48	0
bin	0.49	0
bin	0.5	0
bin	0.51	0
scalar test_eth.IP_2.bgOut dropped:count 0
attr source dropped
attr title "Dropped frames, count"
attr unit packets
scalar test_eth.IP_2.bgOut rxPk:count 3
attr source rxPk
attr title "Received Packets, count"
attr unit packets
scalar test_eth.IP_2.bgOut rxBytes:sum(packetBytes) 4554
attr interpolationmode none
attr source rxPk
attr title "Received Bytes, sum(packetBytes)"
attr unit B
statistic test_eth.IP_2.bgOut rxBytes:histogram(packetBytes)
field count 3
field mean 1518
field stddev 0
field min 1518
field max 1518
field sum 4554
field sqrsum 6912972
attr interpolationmode none
attr source rxPk
attr title "Received Bytes, histogram(packetBytes)"
attr unit B
bin	-inf	0
bin	1517	0
bin	1518	3
bin	1519	0
statistic test_eth.IP_2.bgOut rxLatency:stats
field count 3
field mean 0
field stddev 0
field min 0
field max 0
field sum 0
field sqrsum 0
attr interpolationmode none
attr source messageAge(rxPk)
attr title "End-to-end latency (received), stats"
attr unit s
statistic test_eth.IP_2.bgOut rxLatency:histogram
field count 3
field mean 0
field stddev 0
field min 0
field max 0
field sum 0
field sqrsum 0
attr interpolationmode none
attr source messageAge(rxPk)
attr title "End-to-end latency (received), histogram"
attr unit s
bin	-inf	0
bin	-0.5	0
bin	-0.48	0
bin	-0.46	0
bin	-0.44	0
bin	-0.42	0
bin	-0.4	0
bin	-0.38	0
bin	-0.36	0
bin	-0.34	0
bin	-0.32	0
bin	-0.3	0
bin	-0.28	0
bin	-0.26	0
bin	-0.24	0
bin	-0.22	0
bin	-0.2	0
bin	-0.18	0
bin	-0.16	0
bin	-0.14	0
bin	-0.12	0
bin	-0.1	0
bin	-0.08	0
bin	-0.06	0
bin	-0.04	0
bin	-0.02	0
bin	0	3
bin	0.02	0
bin	0.04	0
bin	0.06	0
bin	0.08	0
bin	0.1	0
bin	0.12	0
bin	0.14	0
bin	0.16	0
bin	0.18	0
bin	0.2	0
bin	0.22	0
bin	0.24	0
bin	0.26	0
bin	0.28	0
bin	0.3	0
bin	0.32	0
bin	0.34	0
bin	0.36	0
bin	0.38	0
bin	0.4	0
bin	0.42	0
bin	0.44	0
bin	0.46	0
bin	0.48	0
bin	0.5	0
scalar test_eth.IP_2.bgOut txPk:count 3
attr source txPk
attr title "Transmitted Packets, count"
attr unit packets
scalar test_eth.IP_2.bgOut txBytes:sum(packetBytes) 4554
attr interpolationmode none
attr source txPk
attr title "Transmitted Bytes, sum(packetBytes)"
attr unit B
statistic test_eth.IP_2.bgOut txBytes:histogram(packetBytes)
field count 3
field mean 1518
field stddev 0
field min 1518
field max 1518
field sum 4554
field sqrsum 6912972
attr interpolationmode none
attr source txPk
attr title "Transmitted Bytes, histogram(packetBytes)"
attr unit B
bin	-inf	0
bin	1517	0
bin	1518	3
bin	1519	0
statistic test_eth.IP_2.bgOut txLatency:stats
field count 3
field mean 0
field stddev 0
field min 0
field max 0
field sum 0
field sqrsum 0
attr interpolationmode none
attr source messageAge(txPk)
attr title "End-to-end latency (transmitted), stats"
attr unit s
statistic test_eth.IP_2.bgOut txLatency:histogram
field count 3
field mean 0
field stddev 0
field min 0
field max 0
field sum 0
field sqrsum 0
attr interpolationmode none
attr source messageAge(txPk)
attr title "End-to-end latency (transmitted), histogram"
attr unit s
bin	-inf	0
bin	-0.5	0
bin	-0.48	0
bin	-0.46	0
bin	-0.44	0
bin	-0.42	0
bin	-0.4	0
bin	-0.38	0
bin	-0.36	0
bin	-0.34	0
bin	-0.32	0
bin	-0.3	0
bin	-0.28	0
bin	-0.26	0
bin	-0.24	0
bin	-0.22	0
bin	-0.2	0
bin	-0.18	0
bin	-0.16	0
bin	-0.14	0
bin	-0.12	0
bin	-0.1	0
bin	-0.08	0
bin	-0.06	0
bin	-0.04	0
bin	-0.02	0
bin	0	3
bin	0.02	0
bin	0.04	0
bin	0.06	0
bin	0.08	0
bin	0.1	0
bin	0.12	0
bin	0.14	0
bin	0.16	0
bin	0.18	0
bin	0.2	0
bin	0.22	0
bin	0.24	0
bin	0.26	0
bin	0.28	0
bin	0.3	0
bin	0.32	0
bin	0.34	0
bin	0.36	0
bin	0.38	0
bin	0.4	0
bin	0.42	0
bin	0.44	0
bin	0.46	0
bin	0.48	0
bin	0.5	0

