version 2
run WithQ-0-20221219-14:19:48-9820
attr configname WithQ
attr datetime 20221219-14:19:48
attr experiment WithQ
attr inifile omnetpp.ini
attr iterationvars ""
attr iterationvarsf ""
attr measurement ""
attr network test
attr processid 9820
attr repetition 0
attr replication #0
attr resultdir results
attr runnumber 0
attr seedset 0
param **.gateway2.tte[0].phy[*].untaggedVID 0
param **.gateway2.tte[0].phy[*].taggedVIDs "\"0,1\""
param **.switch.phy[0].untaggedVID 0
param **.switch.phy[0].taggedVIDs "\"0,1\""
param **.switch.phy[1].untaggedVID 0
param **.switch.phy[1].taggedVIDs "\"0,1\""
param **.gateway.configXML "xmldoc(\"GatewayConfig_withQ.xml\")"
param **.taggedVIDs "\"1\""
param **.gateway.transformDelay 40us
param **.addressTableFile "\"addressTable.txt\""
param **.ct_marker 0x03040506
param **.ct_mask 0xffffffff
param **.scheduler.tick 80ns
param **.scheduler.numPeriods 2
param **.scheduler.period[0].cycle_ticks sec_to_tick(30ms)
param **.scheduler.period[0].offset_ticks sec_to_tick(2ms)
param **.scheduler.period[1].cycle_ticks sec_to_tick(20ms)
param **.scheduler.period[1].offset_ticks sec_to_tick(3ms)
param **.scheduler.oscillator.max_drift 200ppm
param **.scheduler.oscillator.drift_change uniform(-50ppm,50ppm)
param **.precission 500ns
param **.gateway.buffering[*].typename "\"AccumulationGatewayBuffering\""
param **.gateway.transform[*].typename "\"GatewayTransformation\""
param **.gateway1.can[0].bufferIn[0].idIncomingFrames "\"1,2,3,4\""
param **.gateway1.tte[0].phy[*].mac.address "\"0A-00-00-00-00-03\""
param **.gateway1.tte[*].bgIn.destination_gates "\"gatewayApp.in\""
param **.gateway1.tte[*].gatewayApp.buffers "\"bgOut,TTvlinks[0]\""
param **.gateway1.tte[0].numberOfTT_Vlinks 1
param **.gateway1.tte[0].phy[0].inControl.ct_incomings "\"TTvlinks_ctc[0]\""
param **.gateway1.tte[0].TTvlinks[0].period "\"period[0]\""
param **.gateway1.tte[0].TTvlinks_ctc[0].period "\"period[0]\""
param **.gateway1.tte[0].TTvlinks[0].destination_gates "\"phy[0].TTin\""
param **.gateway1.tte[0].TTvlinks_ctc[0].receive_window_start -1tick
param **.gateway1.tte[0].TTvlinks_ctc[0].receive_window_end -1tick
param **.gateway1.tte[0].TTvlinks_ctc[0].permanence_pit -1tick
param **.gateway1.tte[0].TTvlinks[0].ct_id 1
param **.gateway1.tte[0].TTvlinks[0].sendWindowStart sec_to_tick(1ms)
param **.gateway1.tte[0].phy[0].shaper.tt_buffers "\"TTvlinks[0]\""
param **.gateway2.tte[0].phy[*].mac.address "\"0A-00-00-00-00-04\""
param **.gateway2.tte[*].bgIn.destination_gates "\"gatewayApp.in\""
param **.gateway2.tte[*].gatewayApp.buffers "\"bgOut\""
param **.gateway2.tte[0].numberOfTT_Vlinks 1
param **.gateway2.tte[0].phy[0].inControl.ct_incomings "\"TTvlinks_ctc[0]\""
param **.gateway2.tte[0].gatewayApp.buffers "\"TTvlinks[0]\""
param **.gateway2.tte[0].TTvlinks[0].period "\"period[0]\""
param **.gateway2.tte[0].TTvlinks_ctc[0].period "\"period[0]\""
param **.gateway2.tte[0].TTvlinks[0].destination_gates "\"gatewayApp.TTin\""
param **.gateway2.tte[0].TTvlinks_ctc[0].receive_window_start -1tick
param **.gateway2.tte[0].TTvlinks_ctc[0].receive_window_end -1tick
param **.gateway2.tte[0].TTvlinks_ctc[0].permanence_pit -1tick
param **.gateway2.tte[0].TTvlinks[0].ct_id 1
param **.gateway2.tte[0].TTvlinks[0].sendWindowStart sec_to_tick(1ms)
param **.gateway2.tte[0].phy[0].shaper.tt_buffers "\"TTvlinks[0]\""
param **.switch.phy[0].mac.address "\"0A-00-00-00-00-01\""
param **.switch.phy[1].mac.address "\"0A-00-00-00-00-02\""
param **.switch.phy[0].inControl.ct_incomings "\"TTvlinks_ctc[0]\""
param **.switch.phy[1].inControl.ct_incomings "\"TTvlinks_ctc[0]\""
param **.switch.phy[0].shaper.tt_buffers "\"TTvlinks[0]\""
param **.switch.phy[1].shaper.tt_buffers "\"TTvlinks[0]\""
param **.switch.TTvlinks[0].period "\"period[0]\""
param **.switch.TTvlinks_ctc[0].period "\"period[0]\""
param **.switch.TTvlinks[0].destination_gates "\"phy[1].TTin\""
param **.switch.TTvlinks_ctc[0].receive_window_start -1tick
param **.switch.TTvlinks_ctc[0].receive_window_end -1tick
param **.switch.TTvlinks_ctc[0].permanence_pit -1tick
param **.switch.TTvlinks[0].ct_id 1
param **.switch.TTvlinks[0].sendWindowStart sec_to_tick(1.5ms)
param **.sensor[0].sourceApp[0].idDataFrames "\"1\""
param **.sensor[0].sourceApp[0].initialDataFrameOffset "\"0\""
param **.sensor[0].sourceApp[0].periodicityDataFrames "\"0.010\""
param **.sensor[0].sourceApp[0].dataLengthDataFrames "\"8\""
param **.sensor[1].sourceApp[0].idDataFrames "\"2\""
param **.sensor[1].sourceApp[0].initialDataFrameOffset "\"0.00020\""
param **.sensor[1].sourceApp[0].periodicityDataFrames "\"0.015\""
param **.sensor[1].sourceApp[0].dataLengthDataFrames "\"8\""
param **.sensor[2].sourceApp[0].idDataFrames "\"3\""
param **.sensor[2].sourceApp[0].initialDataFrameOffset "\"0.00040\""
param **.sensor[2].sourceApp[0].periodicityDataFrames "\"0.020\""
param **.sensor[2].sourceApp[0].dataLengthDataFrames "\"8\""
param **.sensor[3].sourceApp[0].idDataFrames "\"4\""
param **.sensor[3].sourceApp[0].initialDataFrameOffset "\"0.00060\""
param **.sensor[3].sourceApp[0].periodicityDataFrames "\"0.333\""
param **.sensor[3].sourceApp[0].dataLengthDataFrames "\"8\""
param **.aktor[0].bufferIn[0].idIncomingFrames "\"1,2\""
param **.aktor[0].sourceApp[0].idDataFrames "\"10\""
param **.aktor[1].bufferIn[0].idIncomingFrames "\"2\""
param **.aktor[1].sourceApp[0].idDataFrames "\"20\""
param **.aktor[2].bufferIn[0].idIncomingFrames "\"2,3,4\""
param **.aktor[2].sourceApp[0].idDataFrames "\"30\""

scalar test.gateway1.ethg$o[0].channel packetsDiscarded:count 0
attr interpolationmode none
attr source constant1(messageDiscarded)
scalar test.gateway1.ethg$o[0].channel utilization:last 0.00090680588818093
attr source timeavg(channelBusy)
scalar test.gateway1.ethg$o[0].channel packets:count 5662
attr interpolationmode none
attr source constant1(messageSent)
scalar test.gateway1.ethg$o[0].channel packetBytes:sum 427792
attr interpolationmode none
attr source packetBytes(messageSent)
attr unit B
scalar test.gateway1.ethg$o[0].channel throughput:last 90680.602657852
attr source sumPerDuration(packetBits(messageSent))
attr unit bps
scalar test.gateway2.ethg$o[0].channel packetsDiscarded:count 0
attr interpolationmode none
attr source constant1(messageDiscarded)
scalar test.gateway2.ethg$o[0].channel utilization:last nan
attr source timeavg(channelBusy)
scalar test.gateway2.ethg$o[0].channel packets:count 0
attr interpolationmode none
attr source constant1(messageSent)
scalar test.gateway2.ethg$o[0].channel packetBytes:sum 0
attr interpolationmode none
attr source packetBytes(messageSent)
attr unit B
scalar test.gateway2.ethg$o[0].channel throughput:last nan
attr source sumPerDuration(packetBits(messageSent))
attr unit bps
scalar test.switch.ethg$o[0].channel packetsDiscarded:count 0
attr interpolationmode none
attr source constant1(messageDiscarded)
scalar test.switch.ethg$o[0].channel utilization:last nan
attr source timeavg(channelBusy)
scalar test.switch.ethg$o[0].channel packets:count 0
attr interpolationmode none
attr source constant1(messageSent)
scalar test.switch.ethg$o[0].channel packetBytes:sum 0
attr interpolationmode none
attr source packetBytes(messageSent)
attr unit B
scalar test.switch.ethg$o[0].channel throughput:last nan
attr source sumPerDuration(packetBits(messageSent))
attr unit bps
scalar test.switch.ethg$o[1].channel packetsDiscarded:count 0
attr interpolationmode none
attr source constant1(messageDiscarded)
scalar test.switch.ethg$o[1].channel utilization:last 0.00090680555636324
attr source timeavg(channelBusy)
scalar test.switch.ethg$o[1].channel packets:count 5662
attr interpolationmode none
attr source constant1(messageSent)
scalar test.switch.ethg$o[1].channel packetBytes:sum 427792
attr interpolationmode none
attr source packetBytes(messageSent)
attr unit B
scalar test.switch.ethg$o[1].channel throughput:last 90680.569476073
attr source sumPerDuration(packetBits(messageSent))
attr unit bps
statistic test.canbus1.canBusLogic arbitrationLength:stats
field count 16588
field mean 0.5
field stddev 0.50001507181721
field min 0
field max 1
field sum 8294
field sqrsum 8294
attr interpolationmode sample-hold
attr source arbitrationLength
attr title "Arbitration Length, stats"
attr unit packets
scalar test.canbus1.canBusLogic utilization:last 2.4613550552785
attr source lowHighRatio(state)*100
attr title "Utilization, last"
attr unit %
scalar test.canbus1.canBusLogic rxEF:count 0
attr interpolationmode none
attr source rxEF
attr title "error frames received, count"
statistic test.canbus1.canBusLogic rxCANIdEF:histogram
field count 0
field mean nan
field stddev nan
field min nan
field max nan
field sum 0
field sqrsum 0
attr interpolationmode none
attr source ID(rxEF)
attr title "received CAN IDs via EF, histogram"
bin	-inf	0
bin	0	0
bin	1	0
scalar test.canbus1.canBusLogic rxRF:count 0
attr interpolationmode none
attr source rxRF
attr title "remote frames received, count"
statistic test.canbus1.canBusLogic rxCANIdRF:histogram
field count 0
field mean nan
field stddev nan
field min nan
field max nan
field sum 0
field sqrsum 0
attr interpolationmode none
attr source ID(rxRF)
attr title "received CAN IDs via RF, histogram"
bin	-inf	0
bin	0	0
bin	1	0
scalar test.canbus1.canBusLogic rxDF:count 8294
attr interpolationmode none
attr source rxDF
attr title "data frames received, count"
statistic test.canbus1.canBusLogic rxCANIdDF:histogram
field count 8294
field mean 1.7999758861828
field stddev 0.83536622459287
field min 1
field max 4
field sum 14929
field sqrsum 32659
attr interpolationmode none
attr source ID(rxDF)
attr title "received CAN IDs via DF, histogram"
bin	-inf	0
bin	0	0
bin	1	3775
bin	2	2517
bin	3	1888
bin	4	114
bin	5	0
scalar test.canbus1.canBusLogic framesPerSec:last 219.76449057868
attr source sumPerDuration(constant1(rxPk))
attr title "Frames/sec, last"
attr unit fps
scalar test.canbus1.canBusLogic bitsPerSec:last 24393.858454233
attr source sumPerDuration(packetBits(rxPk))
attr title "Bits/sec, last"
attr unit bps
statistic test.sensor[0].canNodePort.canPortInput rxRFPayloadLatency:stats
field count 0
field mean nan
field stddev nan
field min nan
field max nan
field sum 0
field sqrsum 0
attr interpolationmode linear
attr source timestampAge(rxRFPayload)
attr title "End-to-end latency of remote frame payload, stats"
attr unit s
statistic test.sensor[0].canNodePort.canPortInput rxRFPayloadLatency:histogram
field count 0
field mean nan
field stddev nan
field min nan
field max nan
field sum 0
field sqrsum 0
attr interpolationmode linear
attr source timestampAge(rxRFPayload)
attr title "End-to-end latency of remote frame payload, histogram"
attr unit s
bin	-inf	0
bin	0	0
bin	1	0
statistic test.sensor[0].canNodePort.canPortInput rxDFPayloadLatency:stats
field count 0
field mean nan
field stddev nan
field min nan
field max nan
field sum 0
field sqrsum 0
attr interpolationmode linear
attr source timestampAge(rxDFPayload)
attr title "End-to-end latency of data frame payload, stats"
attr unit s
statistic test.sensor[0].canNodePort.canPortInput rxDFPayloadLatency:histogram
field count 0
field mean nan
field stddev nan
field min nan
field max nan
field sum 0
field sqrsum 0
attr interpolationmode linear
attr source timestampAge(rxDFPayload)
attr title "End-to-end latency of data frame payload, histogram"
attr unit s
bin	-inf	0
bin	0	0
bin	1	0
scalar test.sensor[0].canNodePort.canPortInput rxRF:count 0
attr source rxRF
attr title "complete remote frames received, count"
statistic test.sensor[0].canNodePort.canPortInput rxRFLatency:stats
field count 0
field mean nan
field stddev nan
field min nan
field max nan
field sum 0
field sqrsum 0
attr interpolationmode linear
attr source timestampAge(rxRF)
attr title "End-to-end latency of remote frames, stats"
attr unit s
statistic test.sensor[0].canNodePort.canPortInput rxRFLatency:histogram
field count 0
field mean nan
field stddev nan
field min nan
field max nan
field sum 0
field sqrsum 0
attr interpolationmode linear
attr source timestampAge(rxRF)
attr title "End-to-end latency of remote frames, histogram"
attr unit s
bin	-inf	0
bin	0	0
bin	1	0
scalar test.sensor[0].canNodePort.canPortInput rxDF:count 0
attr source rxDF
attr title "complete data frames received, count"
statistic test.sensor[0].canNodePort.canPortInput rxDFLatency:stats
field count 0
field mean nan
field stddev nan
field min nan
field max nan
field sum 0
field sqrsum 0
attr interpolationmode linear
attr source timestampAge(rxDF)
attr title "End-to-end latency of data frames, stats"
attr unit s
statistic test.sensor[0].canNodePort.canPortInput rxDFLatency:histogram
field count 0
field mean nan
field stddev nan
field min nan
field max nan
field sum 0
field sqrsum 0
attr interpolationmode linear
attr source timestampAge(rxDF)
attr title "End-to-end latency of data frames, histogram"
attr unit s
bin	-inf	0
bin	0	0
bin	1	0
scalar test.sensor[0].canNodePort.canPortOutput txEF:count 0
attr source txEF
attr title "sent errors, count"
scalar test.sensor[0].canNodePort.canPortOutput txRF:count 0
attr source txRF
attr title "sent remote frames, count"
scalar test.sensor[0].canNodePort.canPortOutput txDF:count 3775
attr source txDF
attr title "sent data frames, count"
scalar test.sensor[0].canNodePort.canPortOutput rxEF:count 0
attr source rxEF
attr title "receive errors, count"
scalar test.sensor[0].bufferIn[0] rxPk:count 0
attr interpolationmode none
attr source rxPk
attr title "RX Packets, count"
scalar test.sensor[0].bufferIn[0] rxPk:sum(packetBytes) 0
attr interpolationmode none
attr source rxPk
attr title "RX Packets, sum(packetBytes)"
statistic test.sensor[0].bufferIn[0] size:stats
field count 0
field mean nan
field stddev nan
field min nan
field max nan
field sum 0
field sqrsum 0
attr interpolationmode sample-hold
attr source size
attr title "Queue Size, stats"
attr unit B
statistic test.sensor[0].bufferIn[0] length:stats
field count 0
field mean nan
field stddev nan
field min nan
field max nan
field sum 0
field sqrsum 0
attr interpolationmode sample-hold
attr source length
attr title "Queue Length, stats"
attr unit packets
scalar test.sensor[0].bufferIn[0] txPk:count 0
attr interpolationmode none
attr source txPk
attr title "TX Packets, count"
scalar test.sensor[0].bufferIn[0] txPk:sum(packetBytes) 0
attr interpolationmode none
attr source txPk
attr title "TX Packets, sum(packetBytes)"
scalar test.sensor[0].bufferOut rxPk:count 7550
attr interpolationmode none
attr source rxPk
attr title "RX Packets, count"
scalar test.sensor[0].bufferOut rxPk:sum(packetBytes) 105700
attr interpolationmode none
attr source rxPk
attr title "RX Packets, sum(packetBytes)"
statistic test.sensor[0].bufferOut size:stats
field count 7550
field mean 7
field stddev 7.0004636222146
field min 0
field max 14
field sum 52850
field sqrsum 739900
attr interpolationmode sample-hold
attr source size
attr title "Queue Size, stats"
attr unit B
statistic test.sensor[0].bufferOut length:stats
field count 7550
field mean 0.5
field stddev 0.50003311587247
field min 0
field max 1
field sum 3775
field sqrsum 3775
attr interpolationmode sample-hold
attr source length
attr title "Queue Length, stats"
attr unit packets
scalar test.sensor[0].bufferOut txPk:count 3775
attr interpolationmode none
attr source txPk
attr title "TX Packets, count"
scalar test.sensor[0].bufferOut txPk:sum(packetBytes) 52850
attr interpolationmode none
attr source txPk
attr title "TX Packets, sum(packetBytes)"
scalar test.sensor[0].sourceApp[0] txRF:count 0
attr source txRF
attr title "source app remote frame, count"
scalar test.sensor[0].sourceApp[0] txDF:count 3775
attr source txDF
attr title "source app data frame, count"
statistic test.sensor[0].sinkApp[0] rxRFPayloadLatency:stats
field count 0
field mean nan
field stddev nan
field min nan
field max nan
field sum 0
field sqrsum 0
attr interpolationmode linear
attr source timestampAge(rxRFPayload)
attr title "End-to-end latency of remote frame payload, stats"
attr unit s
statistic test.sensor[0].sinkApp[0] rxRFPayloadLatency:histogram
field count 0
field mean nan
field stddev nan
field min nan
field max nan
field sum 0
field sqrsum 0
attr interpolationmode linear
attr source timestampAge(rxRFPayload)
attr title "End-to-end latency of remote frame payload, histogram"
attr unit s
bin	-inf	0
bin	0	0
bin	1	0
statistic test.sensor[0].sinkApp[0] rxDFPayloadLatency:stats
field count 0
field mean nan
field stddev nan
field min nan
field max nan
field sum 0
field sqrsum 0
attr interpolationmode linear
attr source timestampAge(rxDFPayload)
attr title "End-to-end latency of data frame payload, stats"
attr unit s
statistic test.sensor[0].sinkApp[0] rxDFPayloadLatency:histogram
field count 0
field mean nan
field stddev nan
field min nan
field max nan
field sum 0
field sqrsum 0
attr interpolationmode linear
attr source timestampAge(rxDFPayload)
attr title "End-to-end latency of data frame payload, histogram"
attr unit s
bin	-inf	0
bin	0	0
bin	1	0
scalar test.sensor[0].sinkApp[0] rxRF:count 0
attr source rxRF
attr title "sink app remote frame, count"
statistic test.sensor[0].sinkApp[0] rxRFLatency:stats
field count 0
field mean nan
field stddev nan
field min nan
field max nan
field sum 0
field sqrsum 0
attr interpolationmode linear
attr source timestampAge(rxRF)
attr title "End-to-end latency of remote frames, stats"
attr unit s
statistic test.sensor[0].sinkApp[0] rxRFLatency:histogram
field count 0
field mean nan
field stddev nan
field min nan
field max nan
field sum 0
field sqrsum 0
attr interpolationmode linear
attr source timestampAge(rxRF)
attr title "End-to-end latency of remote frames, histogram"
attr unit s
bin	-inf	0
bin	0	0
bin	1	0
scalar test.sensor[0].sinkApp[0] rxDF:count 0
attr source rxDF
attr title "sink app data frame, count"
statistic test.sensor[0].sinkApp[0] rxDFLatency:stats
field count 0
field mean nan
field stddev nan
field min nan
field max nan
field sum 0
field sqrsum 0
attr interpolationmode linear
attr source timestampAge(rxDF)
attr title "End-to-end latency of data frames, stats"
attr unit s
statistic test.sensor[0].sinkApp[0] rxDFLatency:histogram
field count 0
field mean nan
field stddev nan
field min nan
field max nan
field sum 0
field sqrsum 0
attr interpolationmode linear
attr source timestampAge(rxDF)
attr title "End-to-end latency of data frames, histogram"
attr unit s
bin	-inf	0
bin	0	0
bin	1	0
statistic test.sensor[0].canClock clockDrift:stats
field count 3776
field mean 0
field stddev 0
field min 0
field max 0
field sum 0
field sqrsum 0
attr interpolationmode linear
attr source clockDrift
attr title "clockDrift, stats"
attr unit s
statistic test.sensor[0].canClock clockDrift:histogram
field count 3776
field mean 0
field stddev 0
field min 0
field max 0
field sum 0
field sqrsum 0
attr interpolationmode linear
attr source clockDrift
attr title "clockDrift, histogram"
attr unit s
bin	-inf	0
bin	-0.5	0
bin	-0.48	0
bin	-0.46	0
bin	-0.44	0
bin	-0.42	0
bin	-0.4	0
bin	-0.38	0
bin	-0.36	0
bin	-0.34	0
bin	-0.32	0
bin	-0.3	0
bin	-0.28	0
bin	-0.26	0
bin	-0.24	0
bin	-0.22	0
bin	-0.2	0
bin	-0.18	0
bin	-0.16	0
bin	-0.14	0
bin	-0.12	0
bin	-0.1	0
bin	-0.08	0
bin	-0.06	0
bin	-0.04	0
bin	-0.02	0
bin	0	3776
bin	0.02	0
bin	0.04	0
bin	0.06	0
bin	0.08	0
bin	0.1	0
bin	0.12	0
bin	0.14	0
bin	0.16	0
bin	0.18	0
bin	0.2	0
bin	0.22	0
bin	0.24	0
bin	0.26	0
bin	0.28	0
bin	0.3	0
bin	0.32	0
bin	0.34	0
bin	0.36	0
bin	0.38	0
bin	0.4	0
bin	0.42	0
bin	0.44	0
bin	0.46	0
bin	0.48	0
bin	0.5	0
statistic test.sensor[1].canNodePort.canPortInput rxRFPayloadLatency:stats
field count 0
field mean nan
field stddev nan
field min nan
field max nan
field sum 0
field sqrsum 0
attr interpolationmode linear
attr source timestampAge(rxRFPayload)
attr title "End-to-end latency of remote frame payload, stats"
attr unit s
statistic test.sensor[1].canNodePort.canPortInput rxRFPayloadLatency:histogram
field count 0
field mean nan
field stddev nan
field min nan
field max nan
field sum 0
field sqrsum 0
attr interpolationmode linear
attr source timestampAge(rxRFPayload)
attr title "End-to-end latency of remote frame payload, histogram"
attr unit s
bin	-inf	0
bin	0	0
bin	1	0
statistic test.sensor[1].canNodePort.canPortInput rxDFPayloadLatency:stats
field count 0
field mean nan
field stddev nan
field min nan
field max nan
field sum 0
field sqrsum 0
attr interpolationmode linear
attr source timestampAge(rxDFPayload)
attr title "End-to-end latency of data frame payload, stats"
attr unit s
statistic test.sensor[1].canNodePort.canPortInput rxDFPayloadLatency:histogram
field count 0
field mean nan
field stddev nan
field min nan
field max nan
field sum 0
field sqrsum 0
attr interpolationmode linear
attr source timestampAge(rxDFPayload)
attr title "End-to-end latency of data frame payload, histogram"
attr unit s
bin	-inf	0
bin	0	0
bin	1	0
scalar test.sensor[1].canNodePort.canPortInput rxRF:count 0
attr source rxRF
attr title "complete remote frames received, count"
statistic test.sensor[1].canNodePort.canPortInput rxRFLatency:stats
field count 0
field mean nan
field stddev nan
field min nan
field max nan
field sum 0
field sqrsum 0
attr interpolationmode linear
attr source timestampAge(rxRF)
attr title "End-to-end latency of remote frames, stats"
attr unit s
statistic test.sensor[1].canNodePort.canPortInput rxRFLatency:histogram
field count 0
field mean nan
field stddev nan
field min nan
field max nan
field sum 0
field sqrsum 0
attr interpolationmode linear
attr source timestampAge(rxRF)
attr title "End-to-end latency of remote frames, histogram"
attr unit s
bin	-inf	0
bin	0	0
bin	1	0
scalar test.sensor[1].canNodePort.canPortInput rxDF:count 0
attr source rxDF
attr title "complete data frames received, count"
statistic test.sensor[1].canNodePort.canPortInput rxDFLatency:stats
field count 0
field mean nan
field stddev nan
field min nan
field max nan
field sum 0
field sqrsum 0
attr interpolationmode linear
attr source timestampAge(rxDF)
attr title "End-to-end latency of data frames, stats"
attr unit s
statistic test.sensor[1].canNodePort.canPortInput rxDFLatency:histogram
field count 0
field mean nan
field stddev nan
field min nan
field max nan
field sum 0
field sqrsum 0
attr interpolationmode linear
attr source timestampAge(rxDF)
attr title "End-to-end latency of data frames, histogram"
attr unit s
bin	-inf	0
bin	0	0
bin	1	0
scalar test.sensor[1].canNodePort.canPortOutput txEF:count 0
attr source txEF
attr title "sent errors, count"
scalar test.sensor[1].canNodePort.canPortOutput txRF:count 0
attr source txRF
attr title "sent remote frames, count"
scalar test.sensor[1].canNodePort.canPortOutput txDF:count 2517
attr source txDF
attr title "sent data frames, count"
scalar test.sensor[1].canNodePort.canPortOutput rxEF:count 0
attr source rxEF
attr title "receive errors, count"
scalar test.sensor[1].bufferIn[0] rxPk:count 0
attr interpolationmode none
attr source rxPk
attr title "RX Packets, count"
scalar test.sensor[1].bufferIn[0] rxPk:sum(packetBytes) 0
attr interpolationmode none
attr source rxPk
attr title "RX Packets, sum(packetBytes)"
statistic test.sensor[1].bufferIn[0] size:stats
field count 0
field mean nan
field stddev nan
field min nan
field max nan
field sum 0
field sqrsum 0
attr interpolationmode sample-hold
attr source size
attr title "Queue Size, stats"
attr unit B
statistic test.sensor[1].bufferIn[0] length:stats
field count 0
field mean nan
field stddev nan
field min nan
field max nan
field sum 0
field sqrsum 0
attr interpolationmode sample-hold
attr source length
attr title "Queue Length, stats"
attr unit packets
scalar test.sensor[1].bufferIn[0] txPk:count 0
attr interpolationmode none
attr source txPk
attr title "TX Packets, count"
scalar test.sensor[1].bufferIn[0] txPk:sum(packetBytes) 0
attr interpolationmode none
attr source txPk
attr title "TX Packets, sum(packetBytes)"
scalar test.sensor[1].bufferOut rxPk:count 5034
attr interpolationmode none
attr source rxPk
attr title "RX Packets, count"
scalar test.sensor[1].bufferOut rxPk:sum(packetBytes) 70476
attr interpolationmode none
attr source rxPk
attr title "RX Packets, sum(packetBytes)"
statistic test.sensor[1].bufferOut size:stats
field count 5034
field mean 7
field stddev 7.000695375753
field min 0
field max 14
field sum 35238
field sqrsum 493332
attr interpolationmode sample-hold
attr source size
attr title "Queue Size, stats"
attr unit B
statistic test.sensor[1].bufferOut length:stats
field count 5034
field mean 0.5
field stddev 0.50004966969664
field min 0
field max 1
field sum 2517
field sqrsum 2517
attr interpolationmode sample-hold
attr source length
attr title "Queue Length, stats"
attr unit packets
scalar test.sensor[1].bufferOut txPk:count 2517
attr interpolationmode none
attr source txPk
attr title "TX Packets, count"
scalar test.sensor[1].bufferOut txPk:sum(packetBytes) 35238
attr interpolationmode none
attr source txPk
attr title "TX Packets, sum(packetBytes)"
scalar test.sensor[1].sourceApp[0] txRF:count 0
attr source txRF
attr title "source app remote frame, count"
scalar test.sensor[1].sourceApp[0] txDF:count 2517
attr source txDF
attr title "source app data frame, count"
statistic test.sensor[1].sinkApp[0] rxRFPayloadLatency:stats
field count 0
field mean nan
field stddev nan
field min nan
field max nan
field sum 0
field sqrsum 0
attr interpolationmode linear
attr source timestampAge(rxRFPayload)
attr title "End-to-end latency of remote frame payload, stats"
attr unit s
statistic test.sensor[1].sinkApp[0] rxRFPayloadLatency:histogram
field count 0
field mean nan
field stddev nan
field min nan
field max nan
field sum 0
field sqrsum 0
attr interpolationmode linear
attr source timestampAge(rxRFPayload)
attr title "End-to-end latency of remote frame payload, histogram"
attr unit s
bin	-inf	0
bin	0	0
bin	1	0
statistic test.sensor[1].sinkApp[0] rxDFPayloadLatency:stats
field count 0
field mean nan
field stddev nan
field min nan
field max nan
field sum 0
field sqrsum 0
attr interpolationmode linear
attr source timestampAge(rxDFPayload)
attr title "End-to-end latency of data frame payload, stats"
attr unit s
statistic test.sensor[1].sinkApp[0] rxDFPayloadLatency:histogram
field count 0
field mean nan
field stddev nan
field min nan
field max nan
field sum 0
field sqrsum 0
attr interpolationmode linear
attr source timestampAge(rxDFPayload)
attr title "End-to-end latency of data frame payload, histogram"
attr unit s
bin	-inf	0
bin	0	0
bin	1	0
scalar test.sensor[1].sinkApp[0] rxRF:count 0
attr source rxRF
attr title "sink app remote frame, count"
statistic test.sensor[1].sinkApp[0] rxRFLatency:stats
field count 0
field mean nan
field stddev nan
field min nan
field max nan
field sum 0
field sqrsum 0
attr interpolationmode linear
attr source timestampAge(rxRF)
attr title "End-to-end latency of remote frames, stats"
attr unit s
statistic test.sensor[1].sinkApp[0] rxRFLatency:histogram
field count 0
field mean nan
field stddev nan
field min nan
field max nan
field sum 0
field sqrsum 0
attr interpolationmode linear
attr source timestampAge(rxRF)
attr title "End-to-end latency of remote frames, histogram"
attr unit s
bin	-inf	0
bin	0	0
bin	1	0
scalar test.sensor[1].sinkApp[0] rxDF:count 0
attr source rxDF
attr title "sink app data frame, count"
statistic test.sensor[1].sinkApp[0] rxDFLatency:stats
field count 0
field mean nan
field stddev nan
field min nan
field max nan
field sum 0
field sqrsum 0
attr interpolationmode linear
attr source timestampAge(rxDF)
attr title "End-to-end latency of data frames, stats"
attr unit s
statistic test.sensor[1].sinkApp[0] rxDFLatency:histogram
field count 0
field mean nan
field stddev nan
field min nan
field max nan
field sum 0
field sqrsum 0
attr interpolationmode linear
attr source timestampAge(rxDF)
attr title "End-to-end latency of data frames, histogram"
attr unit s
bin	-inf	0
bin	0	0
bin	1	0
statistic test.sensor[1].canClock clockDrift:stats
field count 2518
field mean 0
field stddev 0
field min 0
field max 0
field sum 0
field sqrsum 0
attr interpolationmode linear
attr source clockDrift
attr title "clockDrift, stats"
attr unit s
statistic test.sensor[1].canClock clockDrift:histogram
field count 2518
field mean 0
field stddev 0
field min 0
field max 0
field sum 0
field sqrsum 0
attr interpolationmode linear
attr source clockDrift
attr title "clockDrift, histogram"
attr unit s
bin	-inf	0
bin	-0.5	0
bin	-0.48	0
bin	-0.46	0
bin	-0.44	0
bin	-0.42	0
bin	-0.4	0
bin	-0.38	0
bin	-0.36	0
bin	-0.34	0
bin	-0.32	0
bin	-0.3	0
bin	-0.28	0
bin	-0.26	0
bin	-0.24	0
bin	-0.22	0
bin	-0.2	0
bin	-0.18	0
bin	-0.16	0
bin	-0.14	0
bin	-0.12	0
bin	-0.1	0
bin	-0.08	0
bin	-0.06	0
bin	-0.04	0
bin	-0.02	0
bin	0	2518
bin	0.02	0
bin	0.04	0
bin	0.06	0
bin	0.08	0
bin	0.1	0
bin	0.12	0
bin	0.14	0
bin	0.16	0
bin	0.18	0
bin	0.2	0
bin	0.22	0
bin	0.24	0
bin	0.26	0
bin	0.28	0
bin	0.3	0
bin	0.32	0
bin	0.34	0
bin	0.36	0
bin	0.38	0
bin	0.4	0
bin	0.42	0
bin	0.44	0
bin	0.46	0
bin	0.48	0
bin	0.5	0
statistic test.sensor[2].canNodePort.canPortInput rxRFPayloadLatency:stats
field count 0
field mean nan
field stddev nan
field min nan
field max nan
field sum 0
field sqrsum 0
attr interpolationmode linear
attr source timestampAge(rxRFPayload)
attr title "End-to-end latency of remote frame payload, stats"
attr unit s
statistic test.sensor[2].canNodePort.canPortInput rxRFPayloadLatency:histogram
field count 0
field mean nan
field stddev nan
field min nan
field max nan
field sum 0
field sqrsum 0
attr interpolationmode linear
attr source timestampAge(rxRFPayload)
attr title "End-to-end latency of remote frame payload, histogram"
attr unit s
bin	-inf	0
bin	0	0
bin	1	0
statistic test.sensor[2].canNodePort.canPortInput rxDFPayloadLatency:stats
field count 0
field mean nan
field stddev nan
field min nan
field max nan
field sum 0
field sqrsum 0
attr interpolationmode linear
attr source timestampAge(rxDFPayload)
attr title "End-to-end latency of data frame payload, stats"
attr unit s
statistic test.sensor[2].canNodePort.canPortInput rxDFPayloadLatency:histogram
field count 0
field mean nan
field stddev nan
field min nan
field max nan
field sum 0
field sqrsum 0
attr interpolationmode linear
attr source timestampAge(rxDFPayload)
attr title "End-to-end latency of data frame payload, histogram"
attr unit s
bin	-inf	0
bin	0	0
bin	1	0
scalar test.sensor[2].canNodePort.canPortInput rxRF:count 0
attr source rxRF
attr title "complete remote frames received, count"
statistic test.sensor[2].canNodePort.canPortInput rxRFLatency:stats
field count 0
field mean nan
field stddev nan
field min nan
field max nan
field sum 0
field sqrsum 0
attr interpolationmode linear
attr source timestampAge(rxRF)
attr title "End-to-end latency of remote frames, stats"
attr unit s
statistic test.sensor[2].canNodePort.canPortInput rxRFLatency:histogram
field count 0
field mean nan
field stddev nan
field min nan
field max nan
field sum 0
field sqrsum 0
attr interpolationmode linear
attr source timestampAge(rxRF)
attr title "End-to-end latency of remote frames, histogram"
attr unit s
bin	-inf	0
bin	0	0
bin	1	0
scalar test.sensor[2].canNodePort.canPortInput rxDF:count 0
attr source rxDF
attr title "complete data frames received, count"
statistic test.sensor[2].canNodePort.canPortInput rxDFLatency:stats
field count 0
field mean nan
field stddev nan
field min nan
field max nan
field sum 0
field sqrsum 0
attr interpolationmode linear
attr source timestampAge(rxDF)
attr title "End-to-end latency of data frames, stats"
attr unit s
statistic test.sensor[2].canNodePort.canPortInput rxDFLatency:histogram
field count 0
field mean nan
field stddev nan
field min nan
field max nan
field sum 0
field sqrsum 0
attr interpolationmode linear
attr source timestampAge(rxDF)
attr title "End-to-end latency of data frames, histogram"
attr unit s
bin	-inf	0
bin	0	0
bin	1	0
scalar test.sensor[2].canNodePort.canPortOutput txEF:count 0
attr source txEF
attr title "sent errors, count"
scalar test.sensor[2].canNodePort.canPortOutput txRF:count 0
attr source txRF
attr title "sent remote frames, count"
scalar test.sensor[2].canNodePort.canPortOutput txDF:count 1888
attr source txDF
attr title "sent data frames, count"
scalar test.sensor[2].canNodePort.canPortOutput rxEF:count 0
attr source rxEF
attr title "receive errors, count"
scalar test.sensor[2].bufferIn[0] rxPk:count 0
attr interpolationmode none
attr source rxPk
attr title "RX Packets, count"
scalar test.sensor[2].bufferIn[0] rxPk:sum(packetBytes) 0
attr interpolationmode none
attr source rxPk
attr title "RX Packets, sum(packetBytes)"
statistic test.sensor[2].bufferIn[0] size:stats
field count 0
field mean nan
field stddev nan
field min nan
field max nan
field sum 0
field sqrsum 0
attr interpolationmode sample-hold
attr source size
attr title "Queue Size, stats"
attr unit B
statistic test.sensor[2].bufferIn[0] length:stats
field count 0
field mean nan
field stddev nan
field min nan
field max nan
field sum 0
field sqrsum 0
attr interpolationmode sample-hold
attr source length
attr title "Queue Length, stats"
attr unit packets
scalar test.sensor[2].bufferIn[0] txPk:count 0
attr interpolationmode none
attr source txPk
attr title "TX Packets, count"
scalar test.sensor[2].bufferIn[0] txPk:sum(packetBytes) 0
attr interpolationmode none
attr source txPk
attr title "TX Packets, sum(packetBytes)"
scalar test.sensor[2].bufferOut rxPk:count 3776
attr interpolationmode none
attr source rxPk
attr title "RX Packets, count"
scalar test.sensor[2].bufferOut rxPk:sum(packetBytes) 52864
attr interpolationmode none
attr source rxPk
attr title "RX Packets, sum(packetBytes)"
statistic test.sensor[2].bufferOut size:stats
field count 3776
field mean 7
field stddev 7.0009270909252
field min 0
field max 14
field sum 26432
field sqrsum 370048
attr interpolationmode sample-hold
attr source size
attr title "Queue Size, stats"
attr unit B
statistic test.sensor[2].bufferOut length:stats
field count 3776
field mean 0.5
field stddev 0.50006622078037
field min 0
field max 1
field sum 1888
field sqrsum 1888
attr interpolationmode sample-hold
attr source length
attr title "Queue Length, stats"
attr unit packets
scalar test.sensor[2].bufferOut txPk:count 1888
attr interpolationmode none
attr source txPk
attr title "TX Packets, count"
scalar test.sensor[2].bufferOut txPk:sum(packetBytes) 26432
attr interpolationmode none
attr source txPk
attr title "TX Packets, sum(packetBytes)"
scalar test.sensor[2].sourceApp[0] txRF:count 0
attr source txRF
attr title "source app remote frame, count"
scalar test.sensor[2].sourceApp[0] txDF:count 1888
attr source txDF
attr title "source app data frame, count"
statistic test.sensor[2].sinkApp[0] rxRFPayloadLatency:stats
field count 0
field mean nan
field stddev nan
field min nan
field max nan
field sum 0
field sqrsum 0
attr interpolationmode linear
attr source timestampAge(rxRFPayload)
attr title "End-to-end latency of remote frame payload, stats"
attr unit s
statistic test.sensor[2].sinkApp[0] rxRFPayloadLatency:histogram
field count 0
field mean nan
field stddev nan
field min nan
field max nan
field sum 0
field sqrsum 0
attr interpolationmode linear
attr source timestampAge(rxRFPayload)
attr title "End-to-end latency of remote frame payload, histogram"
attr unit s
bin	-inf	0
bin	0	0
bin	1	0
statistic test.sensor[2].sinkApp[0] rxDFPayloadLatency:stats
field count 0
field mean nan
field stddev nan
field min nan
field max nan
field sum 0
field sqrsum 0
attr interpolationmode linear
attr source timestampAge(rxDFPayload)
attr title "End-to-end latency of data frame payload, stats"
attr unit s
statistic test.sensor[2].sinkApp[0] rxDFPayloadLatency:histogram
field count 0
field mean nan
field stddev nan
field min nan
field max nan
field sum 0
field sqrsum 0
attr interpolationmode linear
attr source timestampAge(rxDFPayload)
attr title "End-to-end latency of data frame payload, histogram"
attr unit s
bin	-inf	0
bin	0	0
bin	1	0
scalar test.sensor[2].sinkApp[0] rxRF:count 0
attr source rxRF
attr title "sink app remote frame, count"
statistic test.sensor[2].sinkApp[0] rxRFLatency:stats
field count 0
field mean nan
field stddev nan
field min nan
field max nan
field sum 0
field sqrsum 0
attr interpolationmode linear
attr source timestampAge(rxRF)
attr title "End-to-end latency of remote frames, stats"
attr unit s
statistic test.sensor[2].sinkApp[0] rxRFLatency:histogram
field count 0
field mean nan
field stddev nan
field min nan
field max nan
field sum 0
field sqrsum 0
attr interpolationmode linear
attr source timestampAge(rxRF)
attr title "End-to-end latency of remote frames, histogram"
attr unit s
bin	-inf	0
bin	0	0
bin	1	0
scalar test.sensor[2].sinkApp[0] rxDF:count 0
attr source rxDF
attr title "sink app data frame, count"
statistic test.sensor[2].sinkApp[0] rxDFLatency:stats
field count 0
field mean nan
field stddev nan
field min nan
field max nan
field sum 0
field sqrsum 0
attr interpolationmode linear
attr source timestampAge(rxDF)
attr title "End-to-end latency of data frames, stats"
attr unit s
statistic test.sensor[2].sinkApp[0] rxDFLatency:histogram
field count 0
field mean nan
field stddev nan
field min nan
field max nan
field sum 0
field sqrsum 0
attr interpolationmode linear
attr source timestampAge(rxDF)
attr title "End-to-end latency of data frames, histogram"
attr unit s
bin	-inf	0
bin	0	0
bin	1	0
statistic test.sensor[2].canClock clockDrift:stats
field count 1889
field mean 0
field stddev 0
field min 0
field max 0
field sum 0
field sqrsum 0
attr interpolationmode linear
attr source clockDrift
attr title "clockDrift, stats"
attr unit s
statistic test.sensor[2].canClock clockDrift:histogram
field count 1889
field mean 0
field stddev 0
field min 0
field max 0
field sum 0
field sqrsum 0
attr interpolationmode linear
attr source clockDrift
attr title "clockDrift, histogram"
attr unit s
bin	-inf	0
bin	-0.5	0
bin	-0.48	0
bin	-0.46	0
bin	-0.44	0
bin	-0.42	0
bin	-0.4	0
bin	-0.38	0
bin	-0.36	0
bin	-0.34	0
bin	-0.32	0
bin	-0.3	0
bin	-0.28	0
bin	-0.26	0
bin	-0.24	0
bin	-0.22	0
bin	-0.2	0
bin	-0.18	0
bin	-0.16	0
bin	-0.14	0
bin	-0.12	0
bin	-0.1	0
bin	-0.08	0
bin	-0.06	0
bin	-0.04	0
bin	-0.02	0
bin	0	1889
bin	0.02	0
bin	0.04	0
bin	0.06	0
bin	0.08	0
bin	0.1	0
bin	0.12	0
bin	0.14	0
bin	0.16	0
bin	0.18	0
bin	0.2	0
bin	0.22	0
bin	0.24	0
bin	0.26	0
bin	0.28	0
bin	0.3	0
bin	0.32	0
bin	0.34	0
bin	0.36	0
bin	0.38	0
bin	0.4	0
bin	0.42	0
bin	0.44	0
bin	0.46	0
bin	0.48	0
bin	0.5	0
statistic test.sensor[3].canNodePort.canPortInput rxRFPayloadLatency:stats
field count 0
field mean nan
field stddev nan
field min nan
field max nan
field sum 0
field sqrsum 0
attr interpolationmode linear
attr source timestampAge(rxRFPayload)
attr title "End-to-end latency of remote frame payload, stats"
attr unit s
statistic test.sensor[3].canNodePort.canPortInput rxRFPayloadLatency:histogram
field count 0
field mean nan
field stddev nan
field min nan
field max nan
field sum 0
field sqrsum 0
attr interpolationmode linear
attr source timestampAge(rxRFPayload)
attr title "End-to-end latency of remote frame payload, histogram"
attr unit s
bin	-inf	0
bin	0	0
bin	1	0
statistic test.sensor[3].canNodePort.canPortInput rxDFPayloadLatency:stats
field count 0
field mean nan
field stddev nan
field min nan
field max nan
field sum 0
field sqrsum 0
attr interpolationmode linear
attr source timestampAge(rxDFPayload)
attr title "End-to-end latency of data frame payload, stats"
attr unit s
statistic test.sensor[3].canNodePort.canPortInput rxDFPayloadLatency:histogram
field count 0
field mean nan
field stddev nan
field min nan
field max nan
field sum 0
field sqrsum 0
attr interpolationmode linear
attr source timestampAge(rxDFPayload)
attr title "End-to-end latency of data frame payload, histogram"
attr unit s
bin	-inf	0
bin	0	0
bin	1	0
scalar test.sensor[3].canNodePort.canPortInput rxRF:count 0
attr source rxRF
attr title "complete remote frames received, count"
statistic test.sensor[3].canNodePort.canPortInput rxRFLatency:stats
field count 0
field mean nan
field stddev nan
field min nan
field max nan
field sum 0
field sqrsum 0
attr interpolationmode linear
attr source timestampAge(rxRF)
attr title "End-to-end latency of remote frames, stats"
attr unit s
statistic test.sensor[3].canNodePort.canPortInput rxRFLatency:histogram
field count 0
field mean nan
field stddev nan
field min nan
field max nan
field sum 0
field sqrsum 0
attr interpolationmode linear
attr source timestampAge(rxRF)
attr title "End-to-end latency of remote frames, histogram"
attr unit s
bin	-inf	0
bin	0	0
bin	1	0
scalar test.sensor[3].canNodePort.canPortInput rxDF:count 0
attr source rxDF
attr title "complete data frames received, count"
statistic test.sensor[3].canNodePort.canPortInput rxDFLatency:stats
field count 0
field mean nan
field stddev nan
field min nan
field max nan
field sum 0
field sqrsum 0
attr interpolationmode linear
attr source timestampAge(rxDF)
attr title "End-to-end latency of data frames, stats"
attr unit s
statistic test.sensor[3].canNodePort.canPortInput rxDFLatency:histogram
field count 0
field mean nan
field stddev nan
field min nan
field max nan
field sum 0
field sqrsum 0
attr interpolationmode linear
attr source timestampAge(rxDF)
attr title "End-to-end latency of data frames, histogram"
attr unit s
bin	-inf	0
bin	0	0
bin	1	0
scalar test.sensor[3].canNodePort.canPortOutput txEF:count 0
attr source txEF
attr title "sent errors, count"
scalar test.sensor[3].canNodePort.canPortOutput txRF:count 0
attr source txRF
attr title "sent remote frames, count"
scalar test.sensor[3].canNodePort.canPortOutput txDF:count 114
attr source txDF
attr title "sent data frames, count"
scalar test.sensor[3].canNodePort.canPortOutput rxEF:count 0
attr source rxEF
attr title "receive errors, count"
scalar test.sensor[3].bufferIn[0] rxPk:count 0
attr interpolationmode none
attr source rxPk
attr title "RX Packets, count"
scalar test.sensor[3].bufferIn[0] rxPk:sum(packetBytes) 0
attr interpolationmode none
attr source rxPk
attr title "RX Packets, sum(packetBytes)"
statistic test.sensor[3].bufferIn[0] size:stats
field count 0
field mean nan
field stddev nan
field min nan
field max nan
field sum 0
field sqrsum 0
attr interpolationmode sample-hold
attr source size
attr title "Queue Size, stats"
attr unit B
statistic test.sensor[3].bufferIn[0] length:stats
field count 0
field mean nan
field stddev nan
field min nan
field max nan
field sum 0
field sqrsum 0
attr interpolationmode sample-hold
attr source length
attr title "Queue Length, stats"
attr unit packets
scalar test.sensor[3].bufferIn[0] txPk:count 0
attr interpolationmode none
attr source txPk
attr title "TX Packets, count"
scalar test.sensor[3].bufferIn[0] txPk:sum(packetBytes) 0
attr interpolationmode none
attr source txPk
attr title "TX Packets, sum(packetBytes)"
scalar test.sensor[3].bufferOut rxPk:count 228
attr interpolationmode none
attr source rxPk
attr title "RX Packets, count"
scalar test.sensor[3].bufferOut rxPk:sum(packetBytes) 3192
attr interpolationmode none
attr source rxPk
attr title "RX Packets, sum(packetBytes)"
statistic test.sensor[3].bufferOut size:stats
field count 228
field mean 7
field stddev 7.0154015587732
field min 0
field max 14
field sum 1596
field sqrsum 22344
attr interpolationmode sample-hold
attr source size
attr title "Queue Size, stats"
attr unit B
statistic test.sensor[3].bufferOut length:stats
field count 228
field mean 0.5
field stddev 0.50110011134094
field min 0
field max 1
field sum 114
field sqrsum 114
attr interpolationmode sample-hold
attr source length
attr title "Queue Length, stats"
attr unit packets
scalar test.sensor[3].bufferOut txPk:count 114
attr interpolationmode none
attr source txPk
attr title "TX Packets, count"
scalar test.sensor[3].bufferOut txPk:sum(packetBytes) 1596
attr interpolationmode none
attr source txPk
attr title "TX Packets, sum(packetBytes)"
scalar test.sensor[3].sourceApp[0] txRF:count 0
attr source txRF
attr title "source app remote frame, count"
scalar test.sensor[3].sourceApp[0] txDF:count 114
attr source txDF
attr title "source app data frame, count"
statistic test.sensor[3].sinkApp[0] rxRFPayloadLatency:stats
field count 0
field mean nan
field stddev nan
field min nan
field max nan
field sum 0
field sqrsum 0
attr interpolationmode linear
attr source timestampAge(rxRFPayload)
attr title "End-to-end latency of remote frame payload, stats"
attr unit s
statistic test.sensor[3].sinkApp[0] rxRFPayloadLatency:histogram
field count 0
field mean nan
field stddev nan
field min nan
field max nan
field sum 0
field sqrsum 0
attr interpolationmode linear
attr source timestampAge(rxRFPayload)
attr title "End-to-end latency of remote frame payload, histogram"
attr unit s
bin	-inf	0
bin	0	0
bin	1	0
statistic test.sensor[3].sinkApp[0] rxDFPayloadLatency:stats
field count 0
field mean nan
field stddev nan
field min nan
field max nan
field sum 0
field sqrsum 0
attr interpolationmode linear
attr source timestampAge(rxDFPayload)
attr title "End-to-end latency of data frame payload, stats"
attr unit s
statistic test.sensor[3].sinkApp[0] rxDFPayloadLatency:histogram
field count 0
field mean nan
field stddev nan
field min nan
field max nan
field sum 0
field sqrsum 0
attr interpolationmode linear
attr source timestampAge(rxDFPayload)
attr title "End-to-end latency of data frame payload, histogram"
attr unit s
bin	-inf	0
bin	0	0
bin	1	0
scalar test.sensor[3].sinkApp[0] rxRF:count 0
attr source rxRF
attr title "sink app remote frame, count"
statistic test.sensor[3].sinkApp[0] rxRFLatency:stats
field count 0
field mean nan
field stddev nan
field min nan
field max nan
field sum 0
field sqrsum 0
attr interpolationmode linear
attr source timestampAge(rxRF)
attr title "End-to-end latency of remote frames, stats"
attr unit s
statistic test.sensor[3].sinkApp[0] rxRFLatency:histogram
field count 0
field mean nan
field stddev nan
field min nan
field max nan
field sum 0
field sqrsum 0
attr interpolationmode linear
attr source timestampAge(rxRF)
attr title "End-to-end latency of remote frames, histogram"
attr unit s
bin	-inf	0
bin	0	0
bin	1	0
scalar test.sensor[3].sinkApp[0] rxDF:count 0
attr source rxDF
attr title "sink app data frame, count"
statistic test.sensor[3].sinkApp[0] rxDFLatency:stats
field count 0
field mean nan
field stddev nan
field min nan
field max nan
field sum 0
field sqrsum 0
attr interpolationmode linear
attr source timestampAge(rxDF)
attr title "End-to-end latency of data frames, stats"
attr unit s
statistic test.sensor[3].sinkApp[0] rxDFLatency:histogram
field count 0
field mean nan
field stddev nan
field min nan
field max nan
field sum 0
field sqrsum 0
attr interpolationmode linear
attr source timestampAge(rxDF)
attr title "End-to-end latency of data frames, histogram"
attr unit s
bin	-inf	0
bin	0	0
bin	1	0
statistic test.sensor[3].canClock clockDrift:stats
field count 115
field mean 0
field stddev 0
field min 0
field max 0
field sum 0
field sqrsum 0
attr interpolationmode linear
attr source clockDrift
attr title "clockDrift, stats"
attr unit s
statistic test.sensor[3].canClock clockDrift:histogram
field count 115
field mean 0
field stddev 0
field min 0
field max 0
field sum 0
field sqrsum 0
attr interpolationmode linear
attr source clockDrift
attr title "clockDrift, histogram"
attr unit s
bin	-inf	0
bin	-0.5	0
bin	-0.48	0
bin	-0.46	0
bin	-0.44	0
bin	-0.42	0
bin	-0.4	0
bin	-0.38	0
bin	-0.36	0
bin	-0.34	0
bin	-0.32	0
bin	-0.3	0
bin	-0.28	0
bin	-0.26	0
bin	-0.24	0
bin	-0.22	0
bin	-0.2	0
bin	-0.18	0
bin	-0.16	0
bin	-0.14	0
bin	-0.12	0
bin	-0.1	0
bin	-0.08	0
bin	-0.06	0
bin	-0.04	0
bin	-0.02	0
bin	0	115
bin	0.02	0
bin	0.04	0
bin	0.06	0
bin	0.08	0
bin	0.1	0
bin	0.12	0
bin	0.14	0
bin	0.16	0
bin	0.18	0
bin	0.2	0
bin	0.22	0
bin	0.24	0
bin	0.26	0
bin	0.28	0
bin	0.3	0
bin	0.32	0
bin	0.34	0
bin	0.36	0
bin	0.38	0
bin	0.4	0
bin	0.42	0
bin	0.44	0
bin	0.46	0
bin	0.48	0
bin	0.5	0
statistic test.canbus2.canBusLogic arbitrationLength:stats
field count 16356
field mean 0.80765468329665
field stddev 0.68046424500358
field min 0
field max 2
field sum 13210
field sqrsum 18242
attr interpolationmode sample-hold
attr source arbitrationLength
attr title "Arbitration Length, stats"
attr unit packets
scalar test.canbus2.canBusLogic utilization:last 2.4202895847262
attr source lowHighRatio(state)*100
attr title "Utilization, last"
attr unit %
scalar test.canbus2.canBusLogic rxEF:count 0
attr interpolationmode none
attr source rxEF
attr title "error frames received, count"
statistic test.canbus2.canBusLogic rxCANIdEF:histogram
field count 0
field mean nan
field stddev nan
field min nan
field max nan
field sum 0
field sqrsum 0
attr interpolationmode none
attr source ID(rxEF)
attr title "received CAN IDs via EF, histogram"
bin	-inf	0
bin	0	0
bin	1	0
scalar test.canbus2.canBusLogic rxRF:count 0
attr interpolationmode none
attr source rxRF
attr title "remote frames received, count"
statistic test.canbus2.canBusLogic rxCANIdRF:histogram
field count 0
field mean nan
field stddev nan
field min nan
field max nan
field sum 0
field sqrsum 0
attr interpolationmode none
attr source ID(rxRF)
attr title "received CAN IDs via RF, histogram"
bin	-inf	0
bin	0	0
bin	1	0
scalar test.canbus2.canBusLogic rxDF:count 8178
attr interpolationmode none
attr source rxDF
attr title "data frames received, count"
statistic test.canbus2.canBusLogic rxCANIdDF:histogram
field count 8178
field mean 1.7693812668134
field stddev 0.79952390973121
field min 1
field max 3
field sum 14470
field sqrsum 30830
attr interpolationmode none
attr source ID(rxDF)
attr title "received CAN IDs via DF, histogram"
bin	-inf	0
bin	0	0
bin	1	3774
bin	2	2516
bin	3	1888
bin	4	0
scalar test.canbus2.canBusLogic framesPerSec:last 216.68964630601
attr source sumPerDuration(constant1(rxPk))
attr title "Frames/sec, last"
attr unit fps
scalar test.canbus2.canBusLogic bitsPerSec:last 24052.550739967
attr source sumPerDuration(packetBits(rxPk))
attr title "Bits/sec, last"
attr unit bps
statistic test.aktor[0].canNodePort.canPortInput rxRFPayloadLatency:stats
field count 0
field mean nan
field stddev nan
field min nan
field max nan
field sum 0
field sqrsum 0
attr interpolationmode linear
attr source timestampAge(rxRFPayload)
attr title "End-to-end latency of remote frame payload, stats"
attr unit s
statistic test.aktor[0].canNodePort.canPortInput rxRFPayloadLatency:histogram
field count 0
field mean nan
field stddev nan
field min nan
field max nan
field sum 0
field sqrsum 0
attr interpolationmode linear
attr source timestampAge(rxRFPayload)
attr title "End-to-end latency of remote frame payload, histogram"
attr unit s
bin	-inf	0
bin	0	0
bin	1	0
statistic test.aktor[0].canNodePort.canPortInput rxDFPayloadLatency:stats
field count 6290
field mean 0.006289044
field stddev 0.001973883103153
field min 0.0052359
field max 0.0102359
field sum 39.55808676
field sqrsum 0.27328584121085
attr interpolationmode linear
attr source timestampAge(rxDFPayload)
attr title "End-to-end latency of data frame payload, stats"
attr unit s
statistic test.aktor[0].canNodePort.canPortInput rxDFPayloadLatency:histogram
field count 6290
field mean 0.006289044
field stddev 0.001973883103153
field min 0.0052359
field max 0.0102359
field sum 39.55808676
field sqrsum 0.27328584121085
attr interpolationmode linear
attr source timestampAge(rxDFPayload)
attr title "End-to-end latency of data frame payload, histogram"
attr unit s
bin	-inf	0
bin	0.0039	0
bin	0.004	0
bin	0.0041	0
bin	0.0042	0
bin	0.0043	0
bin	0.0044	0
bin	0.0045	0
bin	0.0046	0
bin	0.0047	0
bin	0.0048	0
bin	0.0049	0
bin	0.005	0
bin	0.0051	0
bin	0.0052	1258
bin	0.0053	3774
bin	0.0054	0
bin	0.0055	0
bin	0.0056	0
bin	0.0057	0
bin	0.0058	0
bin	0.0059	0
bin	0.006	0
bin	0.0061	0
bin	0.0062	0
bin	0.0063	0
bin	0.0064	0
bin	0.0065	0
bin	0.0066	0
bin	0.0067	0
bin	0.0068	0
bin	0.0069	0
bin	0.007	0
bin	0.0071	0
bin	0.0072	0
bin	0.0073	0
bin	0.0074	0
bin	0.0075	0
bin	0.0076	0
bin	0.0077	0
bin	0.0078	0
bin	0.0079	0
bin	0.008	0
bin	0.0081	0
bin	0.0082	0
bin	0.0083	0
bin	0.0084	0
bin	0.0085	0
bin	0.0086	0
bin	0.0087	0
bin	0.0088	0
bin	0.0089	0
bin	0.009	0
bin	0.0091	0
bin	0.0092	0
bin	0.0093	0
bin	0.0094	0
bin	0.0095	0
bin	0.0096	0
bin	0.0097	0
bin	0.0098	0
bin	0.0099	0
bin	0.01	0
bin	0.0101	0
bin	0.0102	1258
bin	0.0103	0
bin	0.0104	0
bin	0.0105	0
bin	0.0106	0
bin	0.0107	0
bin	0.0108	0
bin	0.0109	0
bin	0.011	0
bin	0.0111	0
bin	0.0112	0
bin	0.0113	0
bin	0.0114	0
bin	0.0115	0
scalar test.aktor[0].canNodePort.canPortInput rxRF:count 0
attr source rxRF
attr title "complete remote frames received, count"
statistic test.aktor[0].canNodePort.canPortInput rxRFLatency:stats
field count 0
field mean nan
field stddev nan
field min nan
field max nan
field sum 0
field sqrsum 0
attr interpolationmode linear
attr source timestampAge(rxRF)
attr title "End-to-end latency of remote frames, stats"
attr unit s
statistic test.aktor[0].canNodePort.canPortInput rxRFLatency:histogram
field count 0
field mean nan
field stddev nan
field min nan
field max nan
field sum 0
field sqrsum 0
attr interpolationmode linear
attr source timestampAge(rxRF)
attr title "End-to-end latency of remote frames, histogram"
attr unit s
bin	-inf	0
bin	0	0
bin	1	0
scalar test.aktor[0].canNodePort.canPortInput rxDF:count 6290
attr source rxDF
attr title "complete data frames received, count"
statistic test.aktor[0].canNodePort.canPortInput rxDFLatency:stats
field count 6290
field mean 0.00015639999999999
field stddev 5.4382995434229e-005
field min 0.000112
field max 0.000223
field sum 0.98375599999995
field sqrsum 0.00017245921999999
attr interpolationmode linear
attr source timestampAge(rxDF)
attr title "End-to-end latency of data frames, stats"
attr unit s
statistic test.aktor[0].canNodePort.canPortInput rxDFLatency:histogram
field count 6290
field mean 0.00015639999999999
field stddev 5.4382995434229e-005
field min 0.000112
field max 0.000223
field sum 0.98375599999995
field sqrsum 0.00017245921999999
attr interpolationmode linear
attr source timestampAge(rxDF)
attr title "End-to-end latency of data frames, histogram"
attr unit s
bin	-inf	0
bin	8.4e-005	0
bin	8.6e-005	0
bin	8.8e-005	0
bin	9e-005	0
bin	9.2e-005	0
bin	9.4e-005	0
bin	9.6e-005	0
bin	9.8e-005	0
bin	0.0001	0
bin	0.000102	0
bin	0.000104	0
bin	0.000106	0
bin	0.000108	0
bin	0.00011	3774
bin	0.000112	0
bin	0.000114	0
bin	0.000116	0
bin	0.000118	0
bin	0.00012	0
bin	0.000122	0
bin	0.000124	0
bin	0.000126	0
bin	0.000128	0
bin	0.00013	0
bin	0.000132	0
bin	0.000134	0
bin	0.000136	0
bin	0.000138	0
bin	0.00014	0
bin	0.000142	0
bin	0.000144	0
bin	0.000146	0
bin	0.000148	0
bin	0.00015	0
bin	0.000152	0
bin	0.000154	0
bin	0.000156	0
bin	0.000158	0
bin	0.00016	0
bin	0.000162	0
bin	0.000164	0
bin	0.000166	0
bin	0.000168	0
bin	0.00017	0
bin	0.000172	0
bin	0.000174	0
bin	0.000176	0
bin	0.000178	0
bin	0.00018	0
bin	0.000182	0
bin	0.000184	0
bin	0.000186	0
bin	0.000188	0
bin	0.00019	0
bin	0.000192	0
bin	0.000194	0
bin	0.000196	0
bin	0.000198	0
bin	0.0002	0
bin	0.000202	0
bin	0.000204	0
bin	0.000206	0
bin	0.000208	0
bin	0.00021	0
bin	0.000212	0
bin	0.000214	0
bin	0.000216	0
bin	0.000218	0
bin	0.00022	0
bin	0.000222	2516
bin	0.000224	0
bin	0.000226	0
bin	0.000228	0
bin	0.00023	0
bin	0.000232	0
bin	0.000234	0
bin	0.000236	0
bin	0.000238	0
bin	0.00024	0
bin	0.000242	0
bin	0.000244	0
bin	0.000246	0
bin	0.000248	0
bin	0.00025	0
bin	0.000252	0
scalar test.aktor[0].canNodePort.canPortOutput txEF:count 0
attr source txEF
attr title "sent errors, count"
scalar test.aktor[0].canNodePort.canPortOutput txRF:count 0
attr source txRF
attr title "sent remote frames, count"
scalar test.aktor[0].canNodePort.canPortOutput txDF:count 0
attr source txDF
attr title "sent data frames, count"
scalar test.aktor[0].canNodePort.canPortOutput rxEF:count 0
attr source rxEF
attr title "receive errors, count"
scalar test.aktor[0].bufferIn[0] rxPk:count 6290
attr interpolationmode none
attr source rxPk
attr title "RX Packets, count"
scalar test.aktor[0].bufferIn[0] rxPk:sum(packetBytes) 88060
attr interpolationmode none
attr source rxPk
attr title "RX Packets, sum(packetBytes)"
statistic test.aktor[0].bufferIn[0] size:stats
field count 0
field mean nan
field stddev nan
field min nan
field max nan
field sum 0
field sqrsum 0
attr interpolationmode sample-hold
attr source size
attr title "Queue Size, stats"
attr unit B
statistic test.aktor[0].bufferIn[0] length:stats
field count 0
field mean nan
field stddev nan
field min nan
field max nan
field sum 0
field sqrsum 0
attr interpolationmode sample-hold
attr source length
attr title "Queue Length, stats"
attr unit packets
scalar test.aktor[0].bufferIn[0] txPk:count 6290
attr interpolationmode none
attr source txPk
attr title "TX Packets, count"
scalar test.aktor[0].bufferIn[0] txPk:sum(packetBytes) 88060
attr interpolationmode none
attr source txPk
attr title "TX Packets, sum(packetBytes)"
scalar test.aktor[0].bufferOut rxPk:count 0
attr interpolationmode none
attr source rxPk
attr title "RX Packets, count"
scalar test.aktor[0].bufferOut rxPk:sum(packetBytes) 0
attr interpolationmode none
attr source rxPk
attr title "RX Packets, sum(packetBytes)"
statistic test.aktor[0].bufferOut size:stats
field count 0
field mean nan
field stddev nan
field min nan
field max nan
field sum 0
field sqrsum 0
attr interpolationmode sample-hold
attr source size
attr title "Queue Size, stats"
attr unit B
statistic test.aktor[0].bufferOut length:stats
field count 0
field mean nan
field stddev nan
field min nan
field max nan
field sum 0
field sqrsum 0
attr interpolationmode sample-hold
attr source length
attr title "Queue Length, stats"
attr unit packets
scalar test.aktor[0].bufferOut txPk:count 0
attr interpolationmode none
attr source txPk
attr title "TX Packets, count"
scalar test.aktor[0].bufferOut txPk:sum(packetBytes) 0
attr interpolationmode none
attr source txPk
attr title "TX Packets, sum(packetBytes)"
scalar test.aktor[0].sourceApp[0] txRF:count 0
attr source txRF
attr title "source app remote frame, count"
scalar test.aktor[0].sourceApp[0] txDF:count 0
attr source txDF
attr title "source app data frame, count"
statistic test.aktor[0].sinkApp[0] rxRFPayloadLatency:stats
field count 0
field mean nan
field stddev nan
field min nan
field max nan
field sum 0
field sqrsum 0
attr interpolationmode linear
attr source timestampAge(rxRFPayload)
attr title "End-to-end latency of remote frame payload, stats"
attr unit s
statistic test.aktor[0].sinkApp[0] rxRFPayloadLatency:histogram
field count 0
field mean nan
field stddev nan
field min nan
field max nan
field sum 0
field sqrsum 0
attr interpolationmode linear
attr source timestampAge(rxRFPayload)
attr title "End-to-end latency of remote frame payload, histogram"
attr unit s
bin	-inf	0
bin	0	0
bin	1	0
statistic test.aktor[0].sinkApp[0] rxDFPayloadLatency:stats
field count 6290
field mean 0.006289044
field stddev 0.001973883103153
field min 0.0052359
field max 0.0102359
field sum 39.55808676
field sqrsum 0.27328584121085
attr interpolationmode linear
attr source timestampAge(rxDFPayload)
attr title "End-to-end latency of data frame payload, stats"
attr unit s
statistic test.aktor[0].sinkApp[0] rxDFPayloadLatency:histogram
field count 6290
field mean 0.006289044
field stddev 0.001973883103153
field min 0.0052359
field max 0.0102359
field sum 39.55808676
field sqrsum 0.27328584121085
attr interpolationmode linear
attr source timestampAge(rxDFPayload)
attr title "End-to-end latency of data frame payload, histogram"
attr unit s
bin	-inf	0
bin	0.0039	0
bin	0.004	0
bin	0.0041	0
bin	0.0042	0
bin	0.0043	0
bin	0.0044	0
bin	0.0045	0
bin	0.0046	0
bin	0.0047	0
bin	0.0048	0
bin	0.0049	0
bin	0.005	0
bin	0.0051	0
bin	0.0052	1258
bin	0.0053	3774
bin	0.0054	0
bin	0.0055	0
bin	0.0056	0
bin	0.0057	0
bin	0.0058	0
bin	0.0059	0
bin	0.006	0
bin	0.0061	0
bin	0.0062	0
bin	0.0063	0
bin	0.0064	0
bin	0.0065	0
bin	0.0066	0
bin	0.0067	0
bin	0.0068	0
bin	0.0069	0
bin	0.007	0
bin	0.0071	0
bin	0.0072	0
bin	0.0073	0
bin	0.0074	0
bin	0.0075	0
bin	0.0076	0
bin	0.0077	0
bin	0.0078	0
bin	0.0079	0
bin	0.008	0
bin	0.0081	0
bin	0.0082	0
bin	0.0083	0
bin	0.0084	0
bin	0.0085	0
bin	0.0086	0
bin	0.0087	0
bin	0.0088	0
bin	0.0089	0
bin	0.009	0
bin	0.0091	0
bin	0.0092	0
bin	0.0093	0
bin	0.0094	0
bin	0.0095	0
bin	0.0096	0
bin	0.0097	0
bin	0.0098	0
bin	0.0099	0
bin	0.01	0
bin	0.0101	0
bin	0.0102	1258
bin	0.0103	0
bin	0.0104	0
bin	0.0105	0
bin	0.0106	0
bin	0.0107	0
bin	0.0108	0
bin	0.0109	0
bin	0.011	0
bin	0.0111	0
bin	0.0112	0
bin	0.0113	0
bin	0.0114	0
bin	0.0115	0
scalar test.aktor[0].sinkApp[0] rxRF:count 0
attr source rxRF
attr title "sink app remote frame, count"
statistic test.aktor[0].sinkApp[0] rxRFLatency:stats
field count 0
field mean nan
field stddev nan
field min nan
field max nan
field sum 0
field sqrsum 0
attr interpolationmode linear
attr source timestampAge(rxRF)
attr title "End-to-end latency of remote frames, stats"
attr unit s
statistic test.aktor[0].sinkApp[0] rxRFLatency:histogram
field count 0
field mean nan
field stddev nan
field min nan
field max nan
field sum 0
field sqrsum 0
attr interpolationmode linear
attr source timestampAge(rxRF)
attr title "End-to-end latency of remote frames, histogram"
attr unit s
bin	-inf	0
bin	0	0
bin	1	0
scalar test.aktor[0].sinkApp[0] rxDF:count 6290
attr source rxDF
attr title "sink app data frame, count"
statistic test.aktor[0].sinkApp[0] rxDFLatency:stats
field count 6290
field mean 0.00015639999999999
field stddev 5.4382995434229e-005
field min 0.000112
field max 0.000223
field sum 0.98375599999995
field sqrsum 0.00017245921999999
attr interpolationmode linear
attr source timestampAge(rxDF)
attr title "End-to-end latency of data frames, stats"
attr unit s
statistic test.aktor[0].sinkApp[0] rxDFLatency:histogram
field count 6290
field mean 0.00015639999999999
field stddev 5.4382995434229e-005
field min 0.000112
field max 0.000223
field sum 0.98375599999995
field sqrsum 0.00017245921999999
attr interpolationmode linear
attr source timestampAge(rxDF)
attr title "End-to-end latency of data frames, histogram"
attr unit s
bin	-inf	0
bin	8.4e-005	0
bin	8.6e-005	0
bin	8.8e-005	0
bin	9e-005	0
bin	9.2e-005	0
bin	9.4e-005	0
bin	9.6e-005	0
bin	9.8e-005	0
bin	0.0001	0
bin	0.000102	0
bin	0.000104	0
bin	0.000106	0
bin	0.000108	0
bin	0.00011	3774
bin	0.000112	0
bin	0.000114	0
bin	0.000116	0
bin	0.000118	0
bin	0.00012	0
bin	0.000122	0
bin	0.000124	0
bin	0.000126	0
bin	0.000128	0
bin	0.00013	0
bin	0.000132	0
bin	0.000134	0
bin	0.000136	0
bin	0.000138	0
bin	0.00014	0
bin	0.000142	0
bin	0.000144	0
bin	0.000146	0
bin	0.000148	0
bin	0.00015	0
bin	0.000152	0
bin	0.000154	0
bin	0.000156	0
bin	0.000158	0
bin	0.00016	0
bin	0.000162	0
bin	0.000164	0
bin	0.000166	0
bin	0.000168	0
bin	0.00017	0
bin	0.000172	0
bin	0.000174	0
bin	0.000176	0
bin	0.000178	0
bin	0.00018	0
bin	0.000182	0
bin	0.000184	0
bin	0.000186	0
bin	0.000188	0
bin	0.00019	0
bin	0.000192	0
bin	0.000194	0
bin	0.000196	0
bin	0.000198	0
bin	0.0002	0
bin	0.000202	0
bin	0.000204	0
bin	0.000206	0
bin	0.000208	0
bin	0.00021	0
bin	0.000212	0
bin	0.000214	0
bin	0.000216	0
bin	0.000218	0
bin	0.00022	0
bin	0.000222	2516
bin	0.000224	0
bin	0.000226	0
bin	0.000228	0
bin	0.00023	0
bin	0.000232	0
bin	0.000234	0
bin	0.000236	0
bin	0.000238	0
bin	0.00024	0
bin	0.000242	0
bin	0.000244	0
bin	0.000246	0
bin	0.000248	0
bin	0.00025	0
bin	0.000252	0
statistic test.aktor[0].canClock clockDrift:stats
field count 1
field mean 0
field stddev nan
field min 0
field max 0
field sum 0
field sqrsum 0
attr interpolationmode linear
attr source clockDrift
attr title "clockDrift, stats"
attr unit s
statistic test.aktor[0].canClock clockDrift:histogram
field count 1
field mean 0
field stddev nan
field min 0
field max 0
field sum 0
field sqrsum 0
attr interpolationmode linear
attr source clockDrift
attr title "clockDrift, histogram"
attr unit s
bin	-inf	0
bin	-0.5	0
bin	-0.48	0
bin	-0.46	0
bin	-0.44	0
bin	-0.42	0
bin	-0.4	0
bin	-0.38	0
bin	-0.36	0
bin	-0.34	0
bin	-0.32	0
bin	-0.3	0
bin	-0.28	0
bin	-0.26	0
bin	-0.24	0
bin	-0.22	0
bin	-0.2	0
bin	-0.18	0
bin	-0.16	0
bin	-0.14	0
bin	-0.12	0
bin	-0.1	0
bin	-0.08	0
bin	-0.06	0
bin	-0.04	0
bin	-0.02	0
bin	0	1
bin	0.02	0
bin	0.04	0
bin	0.06	0
bin	0.08	0
bin	0.1	0
bin	0.12	0
bin	0.14	0
bin	0.16	0
bin	0.18	0
bin	0.2	0
bin	0.22	0
bin	0.24	0
bin	0.26	0
bin	0.28	0
bin	0.3	0
bin	0.32	0
bin	0.34	0
bin	0.36	0
bin	0.38	0
bin	0.4	0
bin	0.42	0
bin	0.44	0
bin	0.46	0
bin	0.48	0
bin	0.5	0
statistic test.aktor[1].canNodePort.canPortInput rxRFPayloadLatency:stats
field count 0
field mean nan
field stddev nan
field min nan
field max nan
field sum 0
field sqrsum 0
attr interpolationmode linear
attr source timestampAge(rxRFPayload)
attr title "End-to-end latency of remote frame payload, stats"
attr unit s
statistic test.aktor[1].canNodePort.canPortInput rxRFPayloadLatency:histogram
field count 0
field mean nan
field stddev nan
field min nan
field max nan
field sum 0
field sqrsum 0
attr interpolationmode linear
attr source timestampAge(rxRFPayload)
attr title "End-to-end latency of remote frame payload, histogram"
attr unit s
bin	-inf	0
bin	0	0
bin	1	0
statistic test.aktor[1].canNodePort.canPortInput rxDFPayloadLatency:stats
field count 2516
field mean 0.0077359
field stddev 0.0025004969684971
field min 0.0052359
field max 0.0102359
field sum 19.4635244
field sqrsum 0.16629287840596
attr interpolationmode linear
attr source timestampAge(rxDFPayload)
attr title "End-to-end latency of data frame payload, stats"
attr unit s
statistic test.aktor[1].canNodePort.canPortInput rxDFPayloadLatency:histogram
field count 2516
field mean 0.0077359
field stddev 0.0025004969684971
field min 0.0052359
field max 0.0102359
field sum 19.4635244
field sqrsum 0.16629287840596
attr interpolationmode linear
attr source timestampAge(rxDFPayload)
attr title "End-to-end latency of data frame payload, histogram"
attr unit s
bin	-inf	0
bin	0.0039	0
bin	0.004	0
bin	0.0041	0
bin	0.0042	0
bin	0.0043	0
bin	0.0044	0
bin	0.0045	0
bin	0.0046	0
bin	0.0047	0
bin	0.0048	0
bin	0.0049	0
bin	0.005	0
bin	0.0051	0
bin	0.0052	1258
bin	0.0053	0
bin	0.0054	0
bin	0.0055	0
bin	0.0056	0
bin	0.0057	0
bin	0.0058	0
bin	0.0059	0
bin	0.006	0
bin	0.0061	0
bin	0.0062	0
bin	0.0063	0
bin	0.0064	0
bin	0.0065	0
bin	0.0066	0
bin	0.0067	0
bin	0.0068	0
bin	0.0069	0
bin	0.007	0
bin	0.0071	0
bin	0.0072	0
bin	0.0073	0
bin	0.0074	0
bin	0.0075	0
bin	0.0076	0
bin	0.0077	0
bin	0.0078	0
bin	0.0079	0
bin	0.008	0
bin	0.0081	0
bin	0.0082	0
bin	0.0083	0
bin	0.0084	0
bin	0.0085	0
bin	0.0086	0
bin	0.0087	0
bin	0.0088	0
bin	0.0089	0
bin	0.009	0
bin	0.0091	0
bin	0.0092	0
bin	0.0093	0
bin	0.0094	0
bin	0.0095	0
bin	0.0096	0
bin	0.0097	0
bin	0.0098	0
bin	0.0099	0
bin	0.01	0
bin	0.0101	0
bin	0.0102	1258
bin	0.0103	0
bin	0.0104	0
bin	0.0105	0
bin	0.0106	0
bin	0.0107	0
bin	0.0108	0
bin	0.0109	0
bin	0.011	0
bin	0.0111	0
bin	0.0112	0
bin	0.0113	0
bin	0.0114	0
bin	0.0115	0
scalar test.aktor[1].canNodePort.canPortInput rxRF:count 0
attr source rxRF
attr title "complete remote frames received, count"
statistic test.aktor[1].canNodePort.canPortInput rxRFLatency:stats
field count 0
field mean nan
field stddev nan
field min nan
field max nan
field sum 0
field sqrsum 0
attr interpolationmode linear
attr source timestampAge(rxRF)
attr title "End-to-end latency of remote frames, stats"
attr unit s
statistic test.aktor[1].canNodePort.canPortInput rxRFLatency:histogram
field count 0
field mean nan
field stddev nan
field min nan
field max nan
field sum 0
field sqrsum 0
attr interpolationmode linear
attr source timestampAge(rxRF)
attr title "End-to-end latency of remote frames, histogram"
attr unit s
bin	-inf	0
bin	0	0
bin	1	0
scalar test.aktor[1].canNodePort.canPortInput rxDF:count 2516
attr source rxDF
attr title "complete data frames received, count"
statistic test.aktor[1].canNodePort.canPortInput rxDFLatency:stats
field count 2516
field mean 0.00022299999999999
field stddev 7.9538097155359e-011
field min 0.000223
field max 0.000223
field sum 0.56106799999996
field sqrsum 0.000125118164
attr interpolationmode linear
attr source timestampAge(rxDF)
attr title "End-to-end latency of data frames, stats"
attr unit s
statistic test.aktor[1].canNodePort.canPortInput rxDFLatency:histogram
field count 2516
field mean 0.00022299999999999
field stddev 7.9538097155359e-011
field min 0.000223
field max 0.000223
field sum 0.56106799999996
field sqrsum 0.000125118164
attr interpolationmode linear
attr source timestampAge(rxDF)
attr title "End-to-end latency of data frames, histogram"
attr unit s
bin	-inf	0
bin	0	2516
bin	0.01	0
bin	0.02	0
bin	0.03	0
bin	0.04	0
bin	0.05	0
bin	0.06	0
bin	0.07	0
bin	0.08	0
bin	0.09	0
bin	0.1	0
bin	0.11	0
bin	0.12	0
bin	0.13	0
bin	0.14	0
bin	0.15	0
bin	0.16	0
bin	0.17	0
bin	0.18	0
bin	0.19	0
bin	0.2	0
bin	0.21	0
bin	0.22	0
bin	0.23	0
bin	0.24	0
bin	0.25	0
bin	0.26	0
bin	0.27	0
bin	0.28	0
bin	0.29	0
bin	0.3	0
bin	0.31	0
bin	0.32	0
bin	0.33	0
bin	0.34	0
bin	0.35	0
bin	0.36	0
bin	0.37	0
bin	0.38	0
bin	0.39	0
bin	0.4	0
bin	0.41	0
bin	0.42	0
bin	0.43	0
bin	0.44	0
bin	0.45	0
bin	0.46	0
bin	0.47	0
bin	0.48	0
bin	0.49	0
bin	0.5	0
bin	0.51	0
scalar test.aktor[1].canNodePort.canPortOutput txEF:count 0
attr source txEF
attr title "sent errors, count"
scalar test.aktor[1].canNodePort.canPortOutput txRF:count 0
attr source txRF
attr title "sent remote frames, count"
scalar test.aktor[1].canNodePort.canPortOutput txDF:count 0
attr source txDF
attr title "sent data frames, count"
scalar test.aktor[1].canNodePort.canPortOutput rxEF:count 0
attr source rxEF
attr title "receive errors, count"
scalar test.aktor[1].bufferIn[0] rxPk:count 2516
attr interpolationmode none
attr source rxPk
attr title "RX Packets, count"
scalar test.aktor[1].bufferIn[0] rxPk:sum(packetBytes) 35224
attr interpolationmode none
attr source rxPk
attr title "RX Packets, sum(packetBytes)"
statistic test.aktor[1].bufferIn[0] size:stats
field count 0
field mean nan
field stddev nan
field min nan
field max nan
field sum 0
field sqrsum 0
attr interpolationmode sample-hold
attr source size
attr title "Queue Size, stats"
attr unit B
statistic test.aktor[1].bufferIn[0] length:stats
field count 0
field mean nan
field stddev nan
field min nan
field max nan
field sum 0
field sqrsum 0
attr interpolationmode sample-hold
attr source length
attr title "Queue Length, stats"
attr unit packets
scalar test.aktor[1].bufferIn[0] txPk:count 2516
attr interpolationmode none
attr source txPk
attr title "TX Packets, count"
scalar test.aktor[1].bufferIn[0] txPk:sum(packetBytes) 35224
attr interpolationmode none
attr source txPk
attr title "TX Packets, sum(packetBytes)"
scalar test.aktor[1].bufferOut rxPk:count 0
attr interpolationmode none
attr source rxPk
attr title "RX Packets, count"
scalar test.aktor[1].bufferOut rxPk:sum(packetBytes) 0
attr interpolationmode none
attr source rxPk
attr title "RX Packets, sum(packetBytes)"
statistic test.aktor[1].bufferOut size:stats
field count 0
field mean nan
field stddev nan
field min nan
field max nan
field sum 0
field sqrsum 0
attr interpolationmode sample-hold
attr source size
attr title "Queue Size, stats"
attr unit B
statistic test.aktor[1].bufferOut length:stats
field count 0
field mean nan
field stddev nan
field min nan
field max nan
field sum 0
field sqrsum 0
attr interpolationmode sample-hold
attr source length
attr title "Queue Length, stats"
attr unit packets
scalar test.aktor[1].bufferOut txPk:count 0
attr interpolationmode none
attr source txPk
attr title "TX Packets, count"
scalar test.aktor[1].bufferOut txPk:sum(packetBytes) 0
attr interpolationmode none
attr source txPk
attr title "TX Packets, sum(packetBytes)"
scalar test.aktor[1].sourceApp[0] txRF:count 0
attr source txRF
attr title "source app remote frame, count"
scalar test.aktor[1].sourceApp[0] txDF:count 0
attr source txDF
attr title "source app data frame, count"
statistic test.aktor[1].sinkApp[0] rxRFPayloadLatency:stats
field count 0
field mean nan
field stddev nan
field min nan
field max nan
field sum 0
field sqrsum 0
attr interpolationmode linear
attr source timestampAge(rxRFPayload)
attr title "End-to-end latency of remote frame payload, stats"
attr unit s
statistic test.aktor[1].sinkApp[0] rxRFPayloadLatency:histogram
field count 0
field mean nan
field stddev nan
field min nan
field max nan
field sum 0
field sqrsum 0
attr interpolationmode linear
attr source timestampAge(rxRFPayload)
attr title "End-to-end latency of remote frame payload, histogram"
attr unit s
bin	-inf	0
bin	0	0
bin	1	0
statistic test.aktor[1].sinkApp[0] rxDFPayloadLatency:stats
field count 2516
field mean 0.0077359
field stddev 0.0025004969684971
field min 0.0052359
field max 0.0102359
field sum 19.4635244
field sqrsum 0.16629287840596
attr interpolationmode linear
attr source timestampAge(rxDFPayload)
attr title "End-to-end latency of data frame payload, stats"
attr unit s
statistic test.aktor[1].sinkApp[0] rxDFPayloadLatency:histogram
field count 2516
field mean 0.0077359
field stddev 0.0025004969684971
field min 0.0052359
field max 0.0102359
field sum 19.4635244
field sqrsum 0.16629287840596
attr interpolationmode linear
attr source timestampAge(rxDFPayload)
attr title "End-to-end latency of data frame payload, histogram"
attr unit s
bin	-inf	0
bin	0.0039	0
bin	0.004	0
bin	0.0041	0
bin	0.0042	0
bin	0.0043	0
bin	0.0044	0
bin	0.0045	0
bin	0.0046	0
bin	0.0047	0
bin	0.0048	0
bin	0.0049	0
bin	0.005	0
bin	0.0051	0
bin	0.0052	1258
bin	0.0053	0
bin	0.0054	0
bin	0.0055	0
bin	0.0056	0
bin	0.0057	0
bin	0.0058	0
bin	0.0059	0
bin	0.006	0
bin	0.0061	0
bin	0.0062	0
bin	0.0063	0
bin	0.0064	0
bin	0.0065	0
bin	0.0066	0
bin	0.0067	0
bin	0.0068	0
bin	0.0069	0
bin	0.007	0
bin	0.0071	0
bin	0.0072	0
bin	0.0073	0
bin	0.0074	0
bin	0.0075	0
bin	0.0076	0
bin	0.0077	0
bin	0.0078	0
bin	0.0079	0
bin	0.008	0
bin	0.0081	0
bin	0.0082	0
bin	0.0083	0
bin	0.0084	0
bin	0.0085	0
bin	0.0086	0
bin	0.0087	0
bin	0.0088	0
bin	0.0089	0
bin	0.009	0
bin	0.0091	0
bin	0.0092	0
bin	0.0093	0
bin	0.0094	0
bin	0.0095	0
bin	0.0096	0
bin	0.0097	0
bin	0.0098	0
bin	0.0099	0
bin	0.01	0
bin	0.0101	0
bin	0.0102	1258
bin	0.0103	0
bin	0.0104	0
bin	0.0105	0
bin	0.0106	0
bin	0.0107	0
bin	0.0108	0
bin	0.0109	0
bin	0.011	0
bin	0.0111	0
bin	0.0112	0
bin	0.0113	0
bin	0.0114	0
bin	0.0115	0
scalar test.aktor[1].sinkApp[0] rxRF:count 0
attr source rxRF
attr title "sink app remote frame, count"
statistic test.aktor[1].sinkApp[0] rxRFLatency:stats
field count 0
field mean nan
field stddev nan
field min nan
field max nan
field sum 0
field sqrsum 0
attr interpolationmode linear
attr source timestampAge(rxRF)
attr title "End-to-end latency of remote frames, stats"
attr unit s
statistic test.aktor[1].sinkApp[0] rxRFLatency:histogram
field count 0
field mean nan
field stddev nan
field min nan
field max nan
field sum 0
field sqrsum 0
attr interpolationmode linear
attr source timestampAge(rxRF)
attr title "End-to-end latency of remote frames, histogram"
attr unit s
bin	-inf	0
bin	0	0
bin	1	0
scalar test.aktor[1].sinkApp[0] rxDF:count 2516
attr source rxDF
attr title "sink app data frame, count"
statistic test.aktor[1].sinkApp[0] rxDFLatency:stats
field count 2516
field mean 0.00022299999999999
field stddev 7.9538097155359e-011
field min 0.000223
field max 0.000223
field sum 0.56106799999996
field sqrsum 0.000125118164
attr interpolationmode linear
attr source timestampAge(rxDF)
attr title "End-to-end latency of data frames, stats"
attr unit s
statistic test.aktor[1].sinkApp[0] rxDFLatency:histogram
field count 2516
field mean 0.00022299999999999
field stddev 7.9538097155359e-011
field min 0.000223
field max 0.000223
field sum 0.56106799999996
field sqrsum 0.000125118164
attr interpolationmode linear
attr source timestampAge(rxDF)
attr title "End-to-end latency of data frames, histogram"
attr unit s
bin	-inf	0
bin	0	2516
bin	0.01	0
bin	0.02	0
bin	0.03	0
bin	0.04	0
bin	0.05	0
bin	0.06	0
bin	0.07	0
bin	0.08	0
bin	0.09	0
bin	0.1	0
bin	0.11	0
bin	0.12	0
bin	0.13	0
bin	0.14	0
bin	0.15	0
bin	0.16	0
bin	0.17	0
bin	0.18	0
bin	0.19	0
bin	0.2	0
bin	0.21	0
bin	0.22	0
bin	0.23	0
bin	0.24	0
bin	0.25	0
bin	0.26	0
bin	0.27	0
bin	0.28	0
bin	0.29	0
bin	0.3	0
bin	0.31	0
bin	0.32	0
bin	0.33	0
bin	0.34	0
bin	0.35	0
bin	0.36	0
bin	0.37	0
bin	0.38	0
bin	0.39	0
bin	0.4	0
bin	0.41	0
bin	0.42	0
bin	0.43	0
bin	0.44	0
bin	0.45	0
bin	0.46	0
bin	0.47	0
bin	0.48	0
bin	0.49	0
bin	0.5	0
bin	0.51	0
statistic test.aktor[1].canClock clockDrift:stats
field count 1
field mean 0
field stddev nan
field min 0
field max 0
field sum 0
field sqrsum 0
attr interpolationmode linear
attr source clockDrift
attr title "clockDrift, stats"
attr unit s
statistic test.aktor[1].canClock clockDrift:histogram
field count 1
field mean 0
field stddev nan
field min 0
field max 0
field sum 0
field sqrsum 0
attr interpolationmode linear
attr source clockDrift
attr title "clockDrift, histogram"
attr unit s
bin	-inf	0
bin	-0.5	0
bin	-0.48	0
bin	-0.46	0
bin	-0.44	0
bin	-0.42	0
bin	-0.4	0
bin	-0.38	0
bin	-0.36	0
bin	-0.34	0
bin	-0.32	0
bin	-0.3	0
bin	-0.28	0
bin	-0.26	0
bin	-0.24	0
bin	-0.22	0
bin	-0.2	0
bin	-0.18	0
bin	-0.16	0
bin	-0.14	0
bin	-0.12	0
bin	-0.1	0
[...]
scalar test.switch.phy[1].mac rxPausePkUnits:sum 0
attr interpolationmode none
attr title "pause units received, sum"
scalar test.switch.phy[1].mac txPausePkUnits:count 0
attr interpolationmode none
attr title "pause units sent, count"
scalar test.switch.phy[1].mac txPausePkUnits:sum 0
attr interpolationmode none
attr title "pause units sent, sum"
scalar test.switch.phy[1].mac txPk:count 5662
attr interpolationmode none
attr source txPk
attr title "packets transmitted, count"
scalar test.switch.phy[1].mac txPk:sum(packetBytes) 382496
attr interpolationmode none
attr source txPk
attr title "packets transmitted, sum(packetBytes)"
scalar test.switch.phy[1].mac droppedPkNotForUs:count 0
attr interpolationmode none
attr source dropPkNotForUs
attr title "packets dropped/not for us, count"
scalar test.switch.phy[1].mac droppedPkNotForUs:sum(packetBytes) 0
attr interpolationmode none
attr source dropPkNotForUs
attr title "packets dropped/not for us, sum(packetBytes)"
scalar test.switch.phy[1].mac droppedPkBitError:count 0
attr interpolationmode none
attr source dropPkBitError
attr title "packets dropped/bit error, count"
scalar test.switch.phy[1].mac droppedPkBitError:sum(packetBytes) 0
attr interpolationmode none
attr source dropPkBitError
attr title "packets dropped/bit error, sum(packetBytes)"
scalar test.switch.phy[1].mac droppedPkIfaceDown:count 0
attr interpolationmode none
attr source dropPkIfaceDown
attr title "packets dropped/interface down, count"
scalar test.switch.phy[1].mac droppedPkIfaceDown:sum(packetBytes) 0
attr interpolationmode none
attr source dropPkIfaceDown
attr title "packets dropped/interface down, sum(packetBytes)"
scalar test.switch.phy[1].mac rxPkOk:count 0
attr interpolationmode none
attr source rxPkOk
attr title "packets received OK, count"
scalar test.switch.phy[1].mac rxPkOk:sum(packetBytes) 0
attr interpolationmode none
attr source rxPkOk
attr title "packets received OK, sum(packetBytes)"
scalar test.switch.phy[1].mac passedUpPk:count 0
attr interpolationmode none
attr source packetSentToUpper
attr title "packets passed to higher layer, count"
scalar test.switch.phy[1].mac passedUpPk:sum(packetBytes) 0
attr interpolationmode none
attr source packetSentToUpper
attr title "packets passed to higher layer, sum(packetBytes)"
scalar test.switch.avbCTC dropped:count 0
attr source droppedPk
attr title "Packets Dropped, count"
scalar test.switch.avbCTC rxPk:count 0
attr source rxPk
attr title "Received Packets, count"
scalar test.switch.avbCTC rxBytes:sum(packetBytes) 0
attr interpolationmode none
attr source rxPk
attr title "Received Bytes, sum(packetBytes)"
attr unit B
statistic test.switch.avbCTC latency:stats
field count 0
field mean nan
field stddev nan
field min nan
field max nan
field sum 0
field sqrsum 0
attr interpolationmode none
attr source messageAge(rxPk)
attr title "End-to-end latency, stats"
attr unit s
statistic test.switch.avbCTC latency:histogram
field count 0
field mean nan
field stddev nan
field min nan
field max nan
field sum 0
field sqrsum 0
attr interpolationmode none
attr source messageAge(rxPk)
attr title "End-to-end latency, histogram"
attr unit s
bin	-inf	0
bin	0	0
bin	1	0
scalar test.switch.avbABuffer[0] dropped:count 0
attr source dropped
attr title "Dropped frames, count"
attr unit packets
scalar test.switch.avbABuffer[0] rxPk:count 0
attr source rxPk
attr title "Received Packets, count"
attr unit packets
scalar test.switch.avbABuffer[0] rxBytes:sum(packetBytes) 0
attr interpolationmode none
attr source rxPk
attr title "Received Bytes, sum(packetBytes)"
attr unit B
statistic test.switch.avbABuffer[0] rxBytes:histogram(packetBytes)
field count 0
field mean nan
field stddev nan
field min nan
field max nan
field sum 0
field sqrsum 0
attr interpolationmode none
attr source rxPk
attr title "Received Bytes, histogram(packetBytes)"
attr unit B
bin	-inf	0
bin	0	0
bin	1	0
statistic test.switch.avbABuffer[0] rxLatency:stats
field count 0
field mean nan
field stddev nan
field min nan
field max nan
field sum 0
field sqrsum 0
attr interpolationmode none
attr source messageAge(rxPk)
attr title "End-to-end latency (received), stats"
attr unit s
statistic test.switch.avbABuffer[0] rxLatency:histogram
field count 0
field mean nan
field stddev nan
field min nan
field max nan
field sum 0
field sqrsum 0
attr interpolationmode none
attr source messageAge(rxPk)
attr title "End-to-end latency (received), histogram"
attr unit s
bin	-inf	0
bin	0	0
bin	1	0
statistic test.switch.avbABuffer[0] size:stats
field count 0
field mean nan
field stddev nan
field min nan
field max nan
field sum 0
field sqrsum 0
attr interpolationmode sample-hold
attr source size
attr title "Queue Size, stats"
attr unit B
statistic test.switch.avbABuffer[0] length:stats
field count 0
field mean nan
field stddev nan
field min nan
field max nan
field sum 0
field sqrsum 0
attr interpolationmode sample-hold
attr source length
attr title "Queue Length, stats"
attr unit packets
scalar test.switch.avbABuffer[0] txPk:count 0
attr source txPk
attr title "Transmitted Packets, count"
attr unit packets
scalar test.switch.avbABuffer[0] txBytes:sum(packetBytes) 0
attr interpolationmode none
attr source txPk
attr title "Transmitted Bytes, sum(packetBytes)"
attr unit B
statistic test.switch.avbABuffer[0] txBytes:histogram(packetBytes)
field count 0
field mean nan
field stddev nan
field min nan
field max nan
field sum 0
field sqrsum 0
attr interpolationmode none
attr source txPk
attr title "Transmitted Bytes, histogram(packetBytes)"
attr unit B
bin	-inf	0
bin	0	0
bin	1	0
statistic test.switch.avbABuffer[0] txLatency:stats
field count 0
field mean nan
field stddev nan
field min nan
field max nan
field sum 0
field sqrsum 0
attr interpolationmode none
attr source messageAge(txPk)
attr title "End-to-end latency (transmitted), stats"
attr unit s
statistic test.switch.avbABuffer[0] txLatency:histogram
field count 0
field mean nan
field stddev nan
field min nan
field max nan
field sum 0
field sqrsum 0
attr interpolationmode none
attr source messageAge(txPk)
attr title "End-to-end latency (transmitted), histogram"
attr unit s
bin	-inf	0
bin	0	0
bin	1	0
scalar test.switch.avbABuffer[1] dropped:count 0
attr source dropped
attr title "Dropped frames, count"
attr unit packets
scalar test.switch.avbABuffer[1] rxPk:count 0
attr source rxPk
attr title "Received Packets, count"
attr unit packets
scalar test.switch.avbABuffer[1] rxBytes:sum(packetBytes) 0
attr interpolationmode none
attr source rxPk
attr title "Received Bytes, sum(packetBytes)"
attr unit B
statistic test.switch.avbABuffer[1] rxBytes:histogram(packetBytes)
field count 0
field mean nan
field stddev nan
field min nan
field max nan
field sum 0
field sqrsum 0
attr interpolationmode none
attr source rxPk
attr title "Received Bytes, histogram(packetBytes)"
attr unit B
bin	-inf	0
bin	0	0
bin	1	0
statistic test.switch.avbABuffer[1] rxLatency:stats
field count 0
field mean nan
field stddev nan
field min nan
field max nan
field sum 0
field sqrsum 0
attr interpolationmode none
attr source messageAge(rxPk)
attr title "End-to-end latency (received), stats"
attr unit s
statistic test.switch.avbABuffer[1] rxLatency:histogram
field count 0
field mean nan
field stddev nan
field min nan
field max nan
field sum 0
field sqrsum 0
attr interpolationmode none
attr source messageAge(rxPk)
attr title "End-to-end latency (received), histogram"
attr unit s
bin	-inf	0
bin	0	0
bin	1	0
statistic test.switch.avbABuffer[1] size:stats
field count 0
field mean nan
field stddev nan
field min nan
field max nan
field sum 0
field sqrsum 0
attr interpolationmode sample-hold
attr source size
attr title "Queue Size, stats"
attr unit B
statistic test.switch.avbABuffer[1] length:stats
field count 0
field mean nan
field stddev nan
field min nan
field max nan
field sum 0
field sqrsum 0
attr interpolationmode sample-hold
attr source length
attr title "Queue Length, stats"
attr unit packets
scalar test.switch.avbABuffer[1] txPk:count 0
attr source txPk
attr title "Transmitted Packets, count"
attr unit packets
scalar test.switch.avbABuffer[1] txBytes:sum(packetBytes) 0
attr interpolationmode none
attr source txPk
attr title "Transmitted Bytes, sum(packetBytes)"
attr unit B
statistic test.switch.avbABuffer[1] txBytes:histogram(packetBytes)
field count 0
field mean nan
field stddev nan
field min nan
field max nan
field sum 0
field sqrsum 0
attr interpolationmode none
attr source txPk
attr title "Transmitted Bytes, histogram(packetBytes)"
attr unit B
bin	-inf	0
bin	0	0
bin	1	0
statistic test.switch.avbABuffer[1] txLatency:stats
field count 0
field mean nan
field stddev nan
field min nan
field max nan
field sum 0
field sqrsum 0
attr interpolationmode none
attr source messageAge(txPk)
attr title "End-to-end latency (transmitted), stats"
attr unit s
statistic test.switch.avbABuffer[1] txLatency:histogram
field count 0
field mean nan
field stddev nan
field min nan
field max nan
field sum 0
field sqrsum 0
attr interpolationmode none
attr source messageAge(txPk)
attr title "End-to-end latency (transmitted), histogram"
attr unit s
bin	-inf	0
bin	0	0
bin	1	0
scalar test.switch.avbBBuffer[0] dropped:count 0
attr source dropped
attr title "Dropped frames, count"
attr unit packets
scalar test.switch.avbBBuffer[0] rxPk:count 0
attr source rxPk
attr title "Received Packets, count"
attr unit packets
scalar test.switch.avbBBuffer[0] rxBytes:sum(packetBytes) 0
attr interpolationmode none
attr source rxPk
attr title "Received Bytes, sum(packetBytes)"
attr unit B
statistic test.switch.avbBBuffer[0] rxBytes:histogram(packetBytes)
field count 0
field mean nan
field stddev nan
field min nan
field max nan
field sum 0
field sqrsum 0
attr interpolationmode none
attr source rxPk
attr title "Received Bytes, histogram(packetBytes)"
attr unit B
bin	-inf	0
bin	0	0
bin	1	0
statistic test.switch.avbBBuffer[0] rxLatency:stats
field count 0
field mean nan
field stddev nan
field min nan
field max nan
field sum 0
field sqrsum 0
attr interpolationmode none
attr source messageAge(rxPk)
attr title "End-to-end latency (received), stats"
attr unit s
statistic test.switch.avbBBuffer[0] rxLatency:histogram
field count 0
field mean nan
field stddev nan
field min nan
field max nan
field sum 0
field sqrsum 0
attr interpolationmode none
attr source messageAge(rxPk)
attr title "End-to-end latency (received), histogram"
attr unit s
bin	-inf	0
bin	0	0
bin	1	0
statistic test.switch.avbBBuffer[0] size:stats
field count 0
field mean nan
field stddev nan
field min nan
field max nan
field sum 0
field sqrsum 0
attr interpolationmode sample-hold
attr source size
attr title "Queue Size, stats"
attr unit B
statistic test.switch.avbBBuffer[0] length:stats
field count 0
field mean nan
field stddev nan
field min nan
field max nan
field sum 0
field sqrsum 0
attr interpolationmode sample-hold
attr source length
attr title "Queue Length, stats"
attr unit packets
scalar test.switch.avbBBuffer[0] txPk:count 0
attr source txPk
attr title "Transmitted Packets, count"
attr unit packets
scalar test.switch.avbBBuffer[0] txBytes:sum(packetBytes) 0
attr interpolationmode none
attr source txPk
attr title "Transmitted Bytes, sum(packetBytes)"
attr unit B
statistic test.switch.avbBBuffer[0] txBytes:histogram(packetBytes)
field count 0
field mean nan
field stddev nan
field min nan
field max nan
field sum 0
field sqrsum 0
attr interpolationmode none
attr source txPk
attr title "Transmitted Bytes, histogram(packetBytes)"
attr unit B
bin	-inf	0
bin	0	0
bin	1	0
statistic test.switch.avbBBuffer[0] txLatency:stats
field count 0
field mean nan
field stddev nan
field min nan
field max nan
field sum 0
field sqrsum 0
attr interpolationmode none
attr source messageAge(txPk)
attr title "End-to-end latency (transmitted), stats"
attr unit s
statistic test.switch.avbBBuffer[0] txLatency:histogram
field count 0
field mean nan
field stddev nan
field min nan
field max nan
field sum 0
field sqrsum 0
attr interpolationmode none
attr source messageAge(txPk)
attr title "End-to-end latency (transmitted), histogram"
attr unit s
bin	-inf	0
bin	0	0
bin	1	0
scalar test.switch.avbBBuffer[1] dropped:count 0
attr source dropped
attr title "Dropped frames, count"
attr unit packets
scalar test.switch.avbBBuffer[1] rxPk:count 0
attr source rxPk
attr title "Received Packets, count"
attr unit packets
scalar test.switch.avbBBuffer[1] rxBytes:sum(packetBytes) 0
attr interpolationmode none
attr source rxPk
attr title "Received Bytes, sum(packetBytes)"
attr unit B
statistic test.switch.avbBBuffer[1] rxBytes:histogram(packetBytes)
field count 0
field mean nan
field stddev nan
field min nan
field max nan
field sum 0
field sqrsum 0
attr interpolationmode none
attr source rxPk
attr title "Received Bytes, histogram(packetBytes)"
attr unit B
bin	-inf	0
bin	0	0
bin	1	0
statistic test.switch.avbBBuffer[1] rxLatency:stats
field count 0
field mean nan
field stddev nan
field min nan
field max nan
field sum 0
field sqrsum 0
attr interpolationmode none
attr source messageAge(rxPk)
attr title "End-to-end latency (received), stats"
attr unit s
statistic test.switch.avbBBuffer[1] rxLatency:histogram
field count 0
field mean nan
field stddev nan
field min nan
field max nan
field sum 0
field sqrsum 0
attr interpolationmode none
attr source messageAge(rxPk)
attr title "End-to-end latency (received), histogram"
attr unit s
bin	-inf	0
bin	0	0
bin	1	0
statistic test.switch.avbBBuffer[1] size:stats
field count 0
field mean nan
field stddev nan
field min nan
field max nan
field sum 0
field sqrsum 0
attr interpolationmode sample-hold
attr source size
attr title "Queue Size, stats"
attr unit B
statistic test.switch.avbBBuffer[1] length:stats
field count 0
field mean nan
field stddev nan
field min nan
field max nan
field sum 0
field sqrsum 0
attr interpolationmode sample-hold
attr source length
attr title "Queue Length, stats"
attr unit packets
scalar test.switch.avbBBuffer[1] txPk:count 0
attr source txPk
attr title "Transmitted Packets, count"
attr unit packets
scalar test.switch.avbBBuffer[1] txBytes:sum(packetBytes) 0
attr interpolationmode none
attr source txPk
attr title "Transmitted Bytes, sum(packetBytes)"
attr unit B
statistic test.switch.avbBBuffer[1] txBytes:histogram(packetBytes)
field count 0
field mean nan
field stddev nan
field min nan
field max nan
field sum 0
field sqrsum 0
attr interpolationmode none
attr source txPk
attr title "Transmitted Bytes, histogram(packetBytes)"
attr unit B
bin	-inf	0
bin	0	0
bin	1	0
statistic test.switch.avbBBuffer[1] txLatency:stats
field count 0
field mean nan
field stddev nan
field min nan
field max nan
field sum 0
field sqrsum 0
attr interpolationmode none
attr source messageAge(txPk)
attr title "End-to-end latency (transmitted), stats"
attr unit s
statistic test.switch.avbBBuffer[1] txLatency:histogram
field count 0
field mean nan
field stddev nan
field min nan
field max nan
field sum 0
field sqrsum 0
attr interpolationmode none
attr source messageAge(txPk)
attr title "End-to-end latency (transmitted), histogram"
attr unit s
bin	-inf	0
bin	0	0
bin	1	0
scalar test.switch.scheduler.period[0] numberOfCycles:count 1259
attr interpolationmode none
attr source newCycle
attr title "Number of cycle, count"
scalar test.switch.scheduler.period[1] numberOfCycles:count 1888
attr interpolationmode none
attr source newCycle
attr title "Number of cycle, count"
scalar test.switch.TTvlinks[0] dropped:count 0
attr source dropped
attr title "Dropped frames, count"
attr unit packets
scalar test.switch.TTvlinks[0] rxPk:count 0
attr source rxPk
attr title "Received Packets, count"
attr unit packets
scalar test.switch.TTvlinks[0] rxBytes:sum(packetBytes) 0
attr interpolationmode none
attr source rxPk
attr title "Received Bytes, sum(packetBytes)"
attr unit B
statistic test.switch.TTvlinks[0] rxBytes:histogram(packetBytes)
field count 0
field mean nan
field stddev nan
field min nan
field max nan
field sum 0
field sqrsum 0
attr interpolationmode none
attr source rxPk
attr title "Received Bytes, histogram(packetBytes)"
attr unit B
bin	-inf	0
bin	0	0
bin	1	0
statistic test.switch.TTvlinks[0] rxLatency:stats
field count 0
field mean nan
field stddev nan
field min nan
field max nan
field sum 0
field sqrsum 0
attr interpolationmode none
attr source messageAge(rxPk)
attr title "End-to-end latency (received), stats"
attr unit s
statistic test.switch.TTvlinks[0] rxLatency:histogram
field count 0
field mean nan
field stddev nan
field min nan
field max nan
field sum 0
field sqrsum 0
attr interpolationmode none
attr source messageAge(rxPk)
attr title "End-to-end latency (received), histogram"
attr unit s
bin	-inf	0
bin	0	0
bin	1	0
statistic test.switch.TTvlinks[0] size:stats
field count 0
field mean nan
field stddev nan
field min nan
field max nan
field sum 0
field sqrsum 0
attr interpolationmode sample-hold
attr source size
attr title "Queue Size, stats"
attr unit B
statistic test.switch.TTvlinks[0] length:stats
field count 0
field mean nan
field stddev nan
field min nan
field max nan
field sum 0
field sqrsum 0
attr interpolationmode sample-hold
attr source length
attr title "Queue Length, stats"
attr unit packets
scalar test.switch.TTvlinks[0] txPk:count 0
attr source txPk
attr title "Transmitted Packets, count"
attr unit packets
scalar test.switch.TTvlinks[0] txBytes:sum(packetBytes) 0
attr interpolationmode none
attr source txPk
attr title "Transmitted Bytes, sum(packetBytes)"
attr unit B
statistic test.switch.TTvlinks[0] txBytes:histogram(packetBytes)
field count 0
field mean nan
field stddev nan
field min nan
field max nan
field sum 0
field sqrsum 0
attr interpolationmode none
attr source txPk
attr title "Transmitted Bytes, histogram(packetBytes)"
attr unit B
bin	-inf	0
bin	0	0
bin	1	0
statistic test.switch.TTvlinks[0] txLatency:stats
field count 0
field mean nan
field stddev nan
field min nan
field max nan
field sum 0
field sqrsum 0
attr interpolationmode none
attr source messageAge(txPk)
attr title "End-to-end latency (transmitted), stats"
attr unit s
statistic test.switch.TTvlinks[0] txLatency:histogram
field count 0
field mean nan
field stddev nan
field min nan
field max nan
field sum 0
field sqrsum 0
attr interpolationmode none
attr source messageAge(txPk)
attr title "End-to-end latency (transmitted), histogram"
attr unit s
bin	-inf	0
bin	0	0
bin	1	0
scalar test.switch.TTvlinks_ctc[0] dropped:count 0
attr source droppedPk
attr title "Packets Dropped, count"
scalar test.switch.TTvlinks_ctc[0] rxPk:count 0
attr source rxPk
attr title "Received Packets, count"
scalar test.switch.TTvlinks_ctc[0] rxBytes:sum(packetBytes) 0
attr interpolationmode none
attr source rxPk
attr title "Received Bytes, sum(packetBytes)"
attr unit B
statistic test.switch.TTvlinks_ctc[0] latency:stats
field count 0
field mean nan
field stddev nan
field min nan
field max nan
field sum 0
field sqrsum 0
attr interpolationmode none
attr source messageAge(rxPk)
attr title "End-to-end latency, stats"
attr unit s
statistic test.switch.TTvlinks_ctc[0] latency:histogram
field count 0
field mean nan
field stddev nan
field min nan
field max nan
field sum 0
field sqrsum 0
attr interpolationmode none
attr source messageAge(rxPk)
attr title "End-to-end latency, histogram"
attr unit s
bin	-inf	0
bin	0	0
bin	1	0

