version 2
run WithQ-0-20221217-21:43:06-23156
attr configname WithQ
attr datetime 20221217-21:43:06
attr experiment WithQ
attr inifile omnetpp.ini
attr iterationvars ""
attr iterationvarsf ""
attr measurement ""
attr network test
attr processid 23156
attr repetition 0
attr replication #0
attr resultdir results
attr runnumber 0
attr seedset 0
param **.gateway2.tte[0].phy[*].untaggedVID 0
param **.gateway2.tte[0].phy[*].taggedVIDs "\"0,1\""
param **.switch.phy[0].untaggedVID 0
param **.switch.phy[0].taggedVIDs "\"0,1\""
param **.switch.phy[1].untaggedVID 0
param **.switch.phy[1].taggedVIDs "\"0,1\""
param **.gateway.configXML "xmldoc(\"GatewayConfig_withQ.xml\")"
param **.taggedVIDs "\"1\""
param **.gateway.transformDelay 40us
param **.addressTableFile "\"addressTable.txt\""
param **.ct_marker 0x03040506
param **.ct_mask 0xffffffff
param **.scheduler.tick 80ns
param **.scheduler.numPeriods 2
param **.scheduler.period[0].cycle_ticks sec_to_tick(30ms)
param **.scheduler.period[0].offset_ticks sec_to_tick(2ms)
param **.scheduler.period[1].cycle_ticks sec_to_tick(20ms)
param **.scheduler.period[1].offset_ticks sec_to_tick(3ms)
param **.scheduler.oscillator.max_drift 200ppm
param **.scheduler.oscillator.drift_change uniform(-50ppm,50ppm)
param **.precission 500ns
param **.gateway.buffering[*].typename "\"AccumulationGatewayBuffering\""
param **.gateway.transform[*].typename "\"GatewayTransformation\""
param **.gateway1.can[0].bufferIn[0].idIncomingFrames "\"1,2,3,4\""
param **.gateway1.tte[0].phy[*].mac.address "\"0A-00-00-00-00-03\""
param **.gateway1.tte[*].bgIn.destination_gates "\"gatewayApp.in\""
param **.gateway1.tte[*].gatewayApp.buffers "\"bgOut,TTvlinks[0]\""
param **.gateway1.tte[0].numberOfTT_Vlinks 1
param **.gateway1.tte[0].phy[0].inControl.ct_incomings "\"TTvlinks_ctc[0]\""
param **.gateway1.tte[0].TTvlinks[0].period "\"period[0]\""
param **.gateway1.tte[0].TTvlinks_ctc[0].period "\"period[0]\""
param **.gateway1.tte[0].TTvlinks[0].destination_gates "\"phy[0].TTin\""
param **.gateway1.tte[0].TTvlinks_ctc[0].receive_window_start -1tick
param **.gateway1.tte[0].TTvlinks_ctc[0].receive_window_end -1tick
param **.gateway1.tte[0].TTvlinks_ctc[0].permanence_pit -1tick
param **.gateway1.tte[0].TTvlinks[0].ct_id 1
param **.gateway1.tte[0].TTvlinks[0].sendWindowStart sec_to_tick(1ms)
param **.gateway1.tte[0].phy[0].shaper.tt_buffers "\"TTvlinks[0]\""
param **.gateway2.tte[0].phy[*].mac.address "\"0A-00-00-00-00-04\""
param **.gateway2.tte[*].bgIn.destination_gates "\"gatewayApp.in\""
param **.gateway2.tte[*].gatewayApp.buffers "\"bgOut\""
param **.gateway2.tte[0].numberOfTT_Vlinks 1
param **.gateway2.tte[0].phy[0].inControl.ct_incomings "\"TTvlinks_ctc[0]\""
param **.gateway2.tte[0].gatewayApp.buffers "\"TTvlinks[0]\""
param **.gateway2.tte[0].TTvlinks[0].period "\"period[0]\""
param **.gateway2.tte[0].TTvlinks_ctc[0].period "\"period[0]\""
param **.gateway2.tte[0].TTvlinks[0].destination_gates "\"gatewayApp.TTin\""
param **.gateway2.tte[0].TTvlinks_ctc[0].receive_window_start -1tick
param **.gateway2.tte[0].TTvlinks_ctc[0].receive_window_end -1tick
param **.gateway2.tte[0].TTvlinks_ctc[0].permanence_pit -1tick
param **.gateway2.tte[0].TTvlinks[0].ct_id 1
param **.gateway2.tte[0].TTvlinks[0].sendWindowStart sec_to_tick(1ms)
param **.gateway2.tte[0].phy[0].shaper.tt_buffers "\"TTvlinks[0]\""
param **.switch.phy[0].mac.address "\"0A-00-00-00-00-01\""
param **.switch.phy[1].mac.address "\"0A-00-00-00-00-02\""
param **.switch.phy[0].inControl.ct_incomings "\"TTvlinks_ctc[0]\""
param **.switch.phy[1].inControl.ct_incomings "\"TTvlinks_ctc[0]\""
param **.switch.phy[0].shaper.tt_buffers "\"TTvlinks[0]\""
param **.switch.phy[1].shaper.tt_buffers "\"TTvlinks[0]\""
param **.switch.TTvlinks[0].period "\"period[0]\""
param **.switch.TTvlinks_ctc[0].period "\"period[0]\""
param **.switch.TTvlinks[0].destination_gates "\"phy[1].TTin\""
param **.switch.TTvlinks_ctc[0].receive_window_start -1tick
param **.switch.TTvlinks_ctc[0].receive_window_end -1tick
param **.switch.TTvlinks_ctc[0].permanence_pit -1tick
param **.switch.TTvlinks[0].ct_id 1
param **.switch.TTvlinks[0].sendWindowStart sec_to_tick(1.5ms)
param **.sensor[0].sourceApp[0].idDataFrames "\"1\""
param **.sensor[0].sourceApp[0].initialDataFrameOffset "\"0\""
param **.sensor[0].sourceApp[0].periodicityDataFrames "\"0.010\""
param **.sensor[0].sourceApp[0].dataLengthDataFrames "\"8\""
param **.sensor[1].sourceApp[0].idDataFrames "\"2\""
param **.sensor[1].sourceApp[0].initialDataFrameOffset "\"0.00020\""
param **.sensor[1].sourceApp[0].periodicityDataFrames "\"0.015\""
param **.sensor[1].sourceApp[0].dataLengthDataFrames "\"8\""
param **.sensor[2].sourceApp[0].idDataFrames "\"3\""
param **.sensor[2].sourceApp[0].initialDataFrameOffset "\"0.00040\""
param **.sensor[2].sourceApp[0].periodicityDataFrames "\"0.020\""
param **.sensor[2].sourceApp[0].dataLengthDataFrames "\"8\""
param **.sensor[3].sourceApp[0].idDataFrames "\"4\""
param **.sensor[3].sourceApp[0].initialDataFrameOffset "\"0.00060\""
param **.sensor[3].sourceApp[0].periodicityDataFrames "\"0.333\""
param **.sensor[3].sourceApp[0].dataLengthDataFrames "\"8\""
param **.aktor[0].bufferIn[0].idIncomingFrames "\"1\""
param **.aktor[0].sourceApp[0].idDataFrames "\"10\""
param **.aktor[1].bufferIn[0].idIncomingFrames "\"2\""
param **.aktor[1].sourceApp[0].idDataFrames "\"20\""
param **.aktor[2].bufferIn[0].idIncomingFrames "\"1,2\""
param **.aktor[2].sourceApp[0].idDataFrames "\"30\""

scalar test.gateway1.ethg$o[0].channel packetsDiscarded:count 0
attr interpolationmode none
attr source constant1(messageDiscarded)
scalar test.gateway1.ethg$o[0].channel utilization:last 0.0023573200992556
attr source timeavg(channelBusy)
scalar test.gateway1.ethg$o[0].channel packets:count 2
attr interpolationmode none
attr source constant1(messageSent)
scalar test.gateway1.ethg$o[0].channel packetBytes:sum 152
attr interpolationmode none
attr source packetBytes(messageSent)
attr unit B
scalar test.gateway1.ethg$o[0].channel throughput:last 236024.8447205
attr source sumPerDuration(packetBits(messageSent))
attr unit bps
scalar test.gateway2.ethg$o[0].channel packetsDiscarded:count 0
attr interpolationmode none
attr source constant1(messageDiscarded)
scalar test.gateway2.ethg$o[0].channel utilization:last nan
attr source timeavg(channelBusy)
scalar test.gateway2.ethg$o[0].channel packets:count 0
attr interpolationmode none
attr source constant1(messageSent)
scalar test.gateway2.ethg$o[0].channel packetBytes:sum 0
attr interpolationmode none
attr source packetBytes(messageSent)
attr unit B
scalar test.gateway2.ethg$o[0].channel throughput:last nan
attr source sumPerDuration(packetBits(messageSent))
attr unit bps
scalar test.switch.ethg$o[0].channel packetsDiscarded:count 0
attr interpolationmode none
attr source constant1(messageDiscarded)
scalar test.switch.ethg$o[0].channel utilization:last nan
attr source timeavg(channelBusy)
scalar test.switch.ethg$o[0].channel packets:count 0
attr interpolationmode none
attr source constant1(messageSent)
scalar test.switch.ethg$o[0].channel packetBytes:sum 0
attr interpolationmode none
attr source packetBytes(messageSent)
attr unit B
scalar test.switch.ethg$o[0].channel throughput:last nan
attr source sumPerDuration(packetBits(messageSent))
attr unit bps
scalar test.switch.ethg$o[1].channel packetsDiscarded:count 0
attr interpolationmode none
attr source constant1(messageDiscarded)
scalar test.switch.ethg$o[1].channel utilization:last 0.0023507350880076
attr source timeavg(channelBusy)
scalar test.switch.ethg$o[1].channel packets:count 2
attr interpolationmode none
attr source constant1(messageSent)
scalar test.switch.ethg$o[1].channel packetBytes:sum 152
attr interpolationmode none
attr source packetBytes(messageSent)
attr unit B
scalar test.switch.ethg$o[1].channel throughput:last 235364.70884263
attr source sumPerDuration(packetBits(messageSent))
attr unit bps
statistic test.canbus1.canBusLogic arbitrationLength:stats
field count 8
field mean 0.5
field stddev 0.53452248382485
field min 0
field max 1
field sum 4
field sqrsum 4
attr interpolationmode sample-hold
attr source arbitrationLength
attr title "Arbitration Length, stats"
attr unit packets
scalar test.canbus1.canBusLogic utilization:last 62.921348314607
attr source lowHighRatio(state)*100
attr title "Utilization, last"
attr unit %
scalar test.canbus1.canBusLogic rxEF:count 0
attr interpolationmode none
attr source rxEF
attr title "error frames received, count"
statistic test.canbus1.canBusLogic rxCANIdEF:histogram
field count 0
field mean nan
field stddev nan
field min nan
field max nan
field sum 0
field sqrsum 0
attr interpolationmode none
attr source ID(rxEF)
attr title "received CAN IDs via EF, histogram"
bin	-inf	0
bin	0	0
bin	1	0
scalar test.canbus1.canBusLogic rxRF:count 0
attr interpolationmode none
attr source rxRF
attr title "remote frames received, count"
statistic test.canbus1.canBusLogic rxCANIdRF:histogram
field count 0
field mean nan
field stddev nan
field min nan
field max nan
field sum 0
field sqrsum 0
attr interpolationmode none
attr source ID(rxRF)
attr title "received CAN IDs via RF, histogram"
bin	-inf	0
bin	0	0
bin	1	0
scalar test.canbus1.canBusLogic rxDF:count 4
attr interpolationmode none
attr source rxDF
attr title "data frames received, count"
statistic test.canbus1.canBusLogic rxCANIdDF:histogram
field count 4
field mean 2.5
field stddev 1.2909944487358
field min 1
field max 4
field sum 10
field sqrsum 30
attr interpolationmode none
attr source ID(rxDF)
attr title "received CAN IDs via DF, histogram"
bin	-inf	0
bin	0	0
bin	1	1
bin	2	1
bin	3	1
bin	4	1
bin	5	0
scalar test.canbus1.canBusLogic framesPerSec:last 6655.5740432612
attr source sumPerDuration(constant1(rxPk))
attr title "Frames/sec, last"
attr unit fps
scalar test.canbus1.canBusLogic bitsPerSec:last 738768.718802
attr source sumPerDuration(packetBits(rxPk))
attr title "Bits/sec, last"
attr unit bps
statistic test.sensor[0].canNodePort.canPortInput rxRFPayloadLatency:stats
field count 0
field mean nan
field stddev nan
field min nan
field max nan
field sum 0
field sqrsum 0
attr interpolationmode linear
attr source timestampAge(rxRFPayload)
attr title "End-to-end latency of remote frame payload, stats"
attr unit s
statistic test.sensor[0].canNodePort.canPortInput rxRFPayloadLatency:histogram
field count 0
field mean nan
field stddev nan
field min nan
field max nan
field sum 0
field sqrsum 0
attr interpolationmode linear
attr source timestampAge(rxRFPayload)
attr title "End-to-end latency of remote frame payload, histogram"
attr unit s
bin	-inf	0
bin	0	0
bin	1	0
statistic test.sensor[0].canNodePort.canPortInput rxDFPayloadLatency:stats
field count 0
field mean nan
field stddev nan
field min nan
field max nan
field sum 0
field sqrsum 0
attr interpolationmode linear
attr source timestampAge(rxDFPayload)
attr title "End-to-end latency of data frame payload, stats"
attr unit s
statistic test.sensor[0].canNodePort.canPortInput rxDFPayloadLatency:histogram
field count 0
field mean nan
field stddev nan
field min nan
field max nan
field sum 0
field sqrsum 0
attr interpolationmode linear
attr source timestampAge(rxDFPayload)
attr title "End-to-end latency of data frame payload, histogram"
attr unit s
bin	-inf	0
bin	0	0
bin	1	0
scalar test.sensor[0].canNodePort.canPortInput rxRF:count 0
attr source rxRF
attr title "complete remote frames received, count"
statistic test.sensor[0].canNodePort.canPortInput rxRFLatency:stats
field count 0
field mean nan
field stddev nan
field min nan
field max nan
field sum 0
field sqrsum 0
attr interpolationmode linear
attr source timestampAge(rxRF)
attr title "End-to-end latency of remote frames, stats"
attr unit s
statistic test.sensor[0].canNodePort.canPortInput rxRFLatency:histogram
field count 0
field mean nan
field stddev nan
field min nan
field max nan
field sum 0
field sqrsum 0
attr interpolationmode linear
attr source timestampAge(rxRF)
attr title "End-to-end latency of remote frames, histogram"
attr unit s
bin	-inf	0
bin	0	0
bin	1	0
scalar test.sensor[0].canNodePort.canPortInput rxDF:count 0
attr source rxDF
attr title "complete data frames received, count"
statistic test.sensor[0].canNodePort.canPortInput rxDFLatency:stats
field count 0
field mean nan
field stddev nan
field min nan
field max nan
field sum 0
field sqrsum 0
attr interpolationmode linear
attr source timestampAge(rxDF)
attr title "End-to-end latency of data frames, stats"
attr unit s
statistic test.sensor[0].canNodePort.canPortInput rxDFLatency:histogram
field count 0
field mean nan
field stddev nan
field min nan
field max nan
field sum 0
field sqrsum 0
attr interpolationmode linear
attr source timestampAge(rxDF)
attr title "End-to-end latency of data frames, histogram"
attr unit s
bin	-inf	0
bin	0	0
bin	1	0
scalar test.sensor[0].canNodePort.canPortOutput txEF:count 0
attr source txEF
attr title "sent errors, count"
scalar test.sensor[0].canNodePort.canPortOutput txRF:count 0
attr source txRF
attr title "sent remote frames, count"
scalar test.sensor[0].canNodePort.canPortOutput txDF:count 1
attr source txDF
attr title "sent data frames, count"
scalar test.sensor[0].canNodePort.canPortOutput rxEF:count 0
attr source rxEF
attr title "receive errors, count"
scalar test.sensor[0].bufferIn[0] rxPk:count 0
attr interpolationmode none
attr source rxPk
attr title "RX Packets, count"
scalar test.sensor[0].bufferIn[0] rxPk:sum(packetBytes) 0
attr interpolationmode none
attr source rxPk
attr title "RX Packets, sum(packetBytes)"
statistic test.sensor[0].bufferIn[0] size:stats
field count 0
field mean nan
field stddev nan
field min nan
field max nan
field sum 0
field sqrsum 0
attr interpolationmode sample-hold
attr source size
attr title "Queue Size, stats"
attr unit B
statistic test.sensor[0].bufferIn[0] length:stats
field count 0
field mean nan
field stddev nan
field min nan
field max nan
field sum 0
field sqrsum 0
attr interpolationmode sample-hold
attr source length
attr title "Queue Length, stats"
attr unit packets
scalar test.sensor[0].bufferIn[0] txPk:count 0
attr interpolationmode none
attr source txPk
attr title "TX Packets, count"
scalar test.sensor[0].bufferIn[0] txPk:sum(packetBytes) 0
attr interpolationmode none
attr source txPk
attr title "TX Packets, sum(packetBytes)"
scalar test.sensor[0].bufferOut rxPk:count 2
attr interpolationmode none
attr source rxPk
attr title "RX Packets, count"
scalar test.sensor[0].bufferOut rxPk:sum(packetBytes) 28
attr interpolationmode none
attr source rxPk
attr title "RX Packets, sum(packetBytes)"
statistic test.sensor[0].bufferOut size:stats
field count 2
field mean 7
field stddev 9.8994949366117
field min 0
field max 14
field sum 14
field sqrsum 196
attr interpolationmode sample-hold
attr source size
attr title "Queue Size, stats"
attr unit B
statistic test.sensor[0].bufferOut length:stats
field count 2
field mean 0.5
field stddev 0.70710678118655
field min 0
field max 1
field sum 1
field sqrsum 1
attr interpolationmode sample-hold
attr source length
attr title "Queue Length, stats"
attr unit packets
scalar test.sensor[0].bufferOut txPk:count 1
attr interpolationmode none
attr source txPk
attr title "TX Packets, count"
scalar test.sensor[0].bufferOut txPk:sum(packetBytes) 14
attr interpolationmode none
attr source txPk
attr title "TX Packets, sum(packetBytes)"
scalar test.sensor[0].sourceApp[0] txRF:count 0
attr source txRF
attr title "source app remote frame, count"
scalar test.sensor[0].sourceApp[0] txDF:count 1
attr source txDF
attr title "source app data frame, count"
statistic test.sensor[0].sinkApp[0] rxRFPayloadLatency:stats
field count 0
field mean nan
field stddev nan
field min nan
field max nan
field sum 0
field sqrsum 0
attr interpolationmode linear
attr source timestampAge(rxRFPayload)
attr title "End-to-end latency of remote frame payload, stats"
attr unit s
statistic test.sensor[0].sinkApp[0] rxRFPayloadLatency:histogram
field count 0
field mean nan
field stddev nan
field min nan
field max nan
field sum 0
field sqrsum 0
attr interpolationmode linear
attr source timestampAge(rxRFPayload)
attr title "End-to-end latency of remote frame payload, histogram"
attr unit s
bin	-inf	0
bin	0	0
bin	1	0
statistic test.sensor[0].sinkApp[0] rxDFPayloadLatency:stats
field count 0
field mean nan
field stddev nan
field min nan
field max nan
field sum 0
field sqrsum 0
attr interpolationmode linear
attr source timestampAge(rxDFPayload)
attr title "End-to-end latency of data frame payload, stats"
attr unit s
statistic test.sensor[0].sinkApp[0] rxDFPayloadLatency:histogram
field count 0
field mean nan
field stddev nan
field min nan
field max nan
field sum 0
field sqrsum 0
attr interpolationmode linear
attr source timestampAge(rxDFPayload)
attr title "End-to-end latency of data frame payload, histogram"
attr unit s
bin	-inf	0
bin	0	0
bin	1	0
scalar test.sensor[0].sinkApp[0] rxRF:count 0
attr source rxRF
attr title "sink app remote frame, count"
statistic test.sensor[0].sinkApp[0] rxRFLatency:stats
field count 0
field mean nan
field stddev nan
field min nan
field max nan
field sum 0
field sqrsum 0
attr interpolationmode linear
attr source timestampAge(rxRF)
attr title "End-to-end latency of remote frames, stats"
attr unit s
statistic test.sensor[0].sinkApp[0] rxRFLatency:histogram
field count 0
field mean nan
field stddev nan
field min nan
field max nan
field sum 0
field sqrsum 0
attr interpolationmode linear
attr source timestampAge(rxRF)
attr title "End-to-end latency of remote frames, histogram"
attr unit s
bin	-inf	0
bin	0	0
bin	1	0
scalar test.sensor[0].sinkApp[0] rxDF:count 0
attr source rxDF
attr title "sink app data frame, count"
statistic test.sensor[0].sinkApp[0] rxDFLatency:stats
field count 0
field mean nan
field stddev nan
field min nan
field max nan
field sum 0
field sqrsum 0
attr interpolationmode linear
attr source timestampAge(rxDF)
attr title "End-to-end latency of data frames, stats"
attr unit s
statistic test.sensor[0].sinkApp[0] rxDFLatency:histogram
field count 0
field mean nan
field stddev nan
field min nan
field max nan
field sum 0
field sqrsum 0
attr interpolationmode linear
attr source timestampAge(rxDF)
attr title "End-to-end latency of data frames, histogram"
attr unit s
bin	-inf	0
bin	0	0
bin	1	0
statistic test.sensor[0].canClock clockDrift:stats
field count 2
field mean 0
field stddev 0
field min 0
field max 0
field sum 0
field sqrsum 0
attr interpolationmode linear
attr source clockDrift
attr title "clockDrift, stats"
attr unit s
statistic test.sensor[0].canClock clockDrift:histogram
field count 2
field mean 0
field stddev 0
field min 0
field max 0
field sum 0
field sqrsum 0
attr interpolationmode linear
attr source clockDrift
attr title "clockDrift, histogram"
attr unit s
bin	-inf	0
bin	-0.5	0
bin	-0.48	0
bin	-0.46	0
bin	-0.44	0
bin	-0.42	0
bin	-0.4	0
bin	-0.38	0
bin	-0.36	0
bin	-0.34	0
bin	-0.32	0
bin	-0.3	0
bin	-0.28	0
bin	-0.26	0
bin	-0.24	0
bin	-0.22	0
bin	-0.2	0
bin	-0.18	0
bin	-0.16	0
bin	-0.14	0
bin	-0.12	0
bin	-0.1	0
bin	-0.08	0
bin	-0.06	0
bin	-0.04	0
bin	-0.02	0
bin	0	2
bin	0.02	0
bin	0.04	0
bin	0.06	0
bin	0.08	0
bin	0.1	0
bin	0.12	0
bin	0.14	0
bin	0.16	0
bin	0.18	0
bin	0.2	0
bin	0.22	0
bin	0.24	0
bin	0.26	0
bin	0.28	0
bin	0.3	0
bin	0.32	0
bin	0.34	0
bin	0.36	0
bin	0.38	0
bin	0.4	0
bin	0.42	0
bin	0.44	0
bin	0.46	0
bin	0.48	0
bin	0.5	0
statistic test.sensor[1].canNodePort.canPortInput rxRFPayloadLatency:stats
field count 0
field mean nan
field stddev nan
field min nan
field max nan
field sum 0
field sqrsum 0
attr interpolationmode linear
attr source timestampAge(rxRFPayload)
attr title "End-to-end latency of remote frame payload, stats"
attr unit s
statistic test.sensor[1].canNodePort.canPortInput rxRFPayloadLatency:histogram
field count 0
field mean nan
field stddev nan
field min nan
field max nan
field sum 0
field sqrsum 0
attr interpolationmode linear
attr source timestampAge(rxRFPayload)
attr title "End-to-end latency of remote frame payload, histogram"
attr unit s
bin	-inf	0
bin	0	0
bin	1	0
statistic test.sensor[1].canNodePort.canPortInput rxDFPayloadLatency:stats
field count 0
field mean nan
field stddev nan
field min nan
field max nan
field sum 0
field sqrsum 0
attr interpolationmode linear
attr source timestampAge(rxDFPayload)
attr title "End-to-end latency of data frame payload, stats"
attr unit s
statistic test.sensor[1].canNodePort.canPortInput rxDFPayloadLatency:histogram
field count 0
field mean nan
field stddev nan
field min nan
field max nan
field sum 0
field sqrsum 0
attr interpolationmode linear
attr source timestampAge(rxDFPayload)
attr title "End-to-end latency of data frame payload, histogram"
attr unit s
bin	-inf	0
bin	0	0
bin	1	0
scalar test.sensor[1].canNodePort.canPortInput rxRF:count 0
attr source rxRF
attr title "complete remote frames received, count"
statistic test.sensor[1].canNodePort.canPortInput rxRFLatency:stats
field count 0
field mean nan
field stddev nan
field min nan
field max nan
field sum 0
field sqrsum 0
attr interpolationmode linear
attr source timestampAge(rxRF)
attr title "End-to-end latency of remote frames, stats"
attr unit s
statistic test.sensor[1].canNodePort.canPortInput rxRFLatency:histogram
field count 0
field mean nan
field stddev nan
field min nan
field max nan
field sum 0
field sqrsum 0
attr interpolationmode linear
attr source timestampAge(rxRF)
attr title "End-to-end latency of remote frames, histogram"
attr unit s
bin	-inf	0
bin	0	0
bin	1	0
scalar test.sensor[1].canNodePort.canPortInput rxDF:count 0
attr source rxDF
attr title "complete data frames received, count"
statistic test.sensor[1].canNodePort.canPortInput rxDFLatency:stats
field count 0
field mean nan
field stddev nan
field min nan
field max nan
field sum 0
field sqrsum 0
attr interpolationmode linear
attr source timestampAge(rxDF)
attr title "End-to-end latency of data frames, stats"
attr unit s
statistic test.sensor[1].canNodePort.canPortInput rxDFLatency:histogram
field count 0
field mean nan
field stddev nan
field min nan
field max nan
field sum 0
field sqrsum 0
attr interpolationmode linear
attr source timestampAge(rxDF)
attr title "End-to-end latency of data frames, histogram"
attr unit s
bin	-inf	0
bin	0	0
bin	1	0
scalar test.sensor[1].canNodePort.canPortOutput txEF:count 0
attr source txEF
attr title "sent errors, count"
scalar test.sensor[1].canNodePort.canPortOutput txRF:count 0
attr source txRF
attr title "sent remote frames, count"
scalar test.sensor[1].canNodePort.canPortOutput txDF:count 1
attr source txDF
attr title "sent data frames, count"
scalar test.sensor[1].canNodePort.canPortOutput rxEF:count 0
attr source rxEF
attr title "receive errors, count"
scalar test.sensor[1].bufferIn[0] rxPk:count 0
attr interpolationmode none
attr source rxPk
attr title "RX Packets, count"
scalar test.sensor[1].bufferIn[0] rxPk:sum(packetBytes) 0
attr interpolationmode none
attr source rxPk
attr title "RX Packets, sum(packetBytes)"
statistic test.sensor[1].bufferIn[0] size:stats
field count 0
field mean nan
field stddev nan
field min nan
field max nan
field sum 0
field sqrsum 0
attr interpolationmode sample-hold
attr source size
attr title "Queue Size, stats"
attr unit B
statistic test.sensor[1].bufferIn[0] length:stats
field count 0
field mean nan
field stddev nan
field min nan
field max nan
field sum 0
field sqrsum 0
attr interpolationmode sample-hold
attr source length
attr title "Queue Length, stats"
attr unit packets
scalar test.sensor[1].bufferIn[0] txPk:count 0
attr interpolationmode none
attr source txPk
attr title "TX Packets, count"
scalar test.sensor[1].bufferIn[0] txPk:sum(packetBytes) 0
attr interpolationmode none
attr source txPk
attr title "TX Packets, sum(packetBytes)"
scalar test.sensor[1].bufferOut rxPk:count 2
attr interpolationmode none
attr source rxPk
attr title "RX Packets, count"
scalar test.sensor[1].bufferOut rxPk:sum(packetBytes) 28
attr interpolationmode none
attr source rxPk
attr title "RX Packets, sum(packetBytes)"
statistic test.sensor[1].bufferOut size:stats
field count 2
field mean 7
field stddev 9.8994949366117
field min 0
field max 14
field sum 14
field sqrsum 196
attr interpolationmode sample-hold
attr source size
attr title "Queue Size, stats"
attr unit B
statistic test.sensor[1].bufferOut length:stats
field count 2
field mean 0.5
field stddev 0.70710678118655
field min 0
field max 1
field sum 1
field sqrsum 1
attr interpolationmode sample-hold
attr source length
attr title "Queue Length, stats"
attr unit packets
scalar test.sensor[1].bufferOut txPk:count 1
attr interpolationmode none
attr source txPk
attr title "TX Packets, count"
scalar test.sensor[1].bufferOut txPk:sum(packetBytes) 14
attr interpolationmode none
attr source txPk
attr title "TX Packets, sum(packetBytes)"
scalar test.sensor[1].sourceApp[0] txRF:count 0
attr source txRF
attr title "source app remote frame, count"
scalar test.sensor[1].sourceApp[0] txDF:count 1
attr source txDF
attr title "source app data frame, count"
statistic test.sensor[1].sinkApp[0] rxRFPayloadLatency:stats
field count 0
field mean nan
field stddev nan
field min nan
field max nan
field sum 0
field sqrsum 0
attr interpolationmode linear
attr source timestampAge(rxRFPayload)
attr title "End-to-end latency of remote frame payload, stats"
attr unit s
statistic test.sensor[1].sinkApp[0] rxRFPayloadLatency:histogram
field count 0
field mean nan
field stddev nan
field min nan
field max nan
field sum 0
field sqrsum 0
attr interpolationmode linear
attr source timestampAge(rxRFPayload)
attr title "End-to-end latency of remote frame payload, histogram"
attr unit s
bin	-inf	0
bin	0	0
bin	1	0
statistic test.sensor[1].sinkApp[0] rxDFPayloadLatency:stats
field count 0
field mean nan
field stddev nan
field min nan
field max nan
field sum 0
field sqrsum 0
attr interpolationmode linear
attr source timestampAge(rxDFPayload)
attr title "End-to-end latency of data frame payload, stats"
attr unit s
statistic test.sensor[1].sinkApp[0] rxDFPayloadLatency:histogram
field count 0
field mean nan
field stddev nan
field min nan
field max nan
field sum 0
field sqrsum 0
attr interpolationmode linear
attr source timestampAge(rxDFPayload)
attr title "End-to-end latency of data frame payload, histogram"
attr unit s
bin	-inf	0
bin	0	0
bin	1	0
scalar test.sensor[1].sinkApp[0] rxRF:count 0
attr source rxRF
attr title "sink app remote frame, count"
statistic test.sensor[1].sinkApp[0] rxRFLatency:stats
field count 0
field mean nan
field stddev nan
field min nan
field max nan
field sum 0
field sqrsum 0
attr interpolationmode linear
attr source timestampAge(rxRF)
attr title "End-to-end latency of remote frames, stats"
attr unit s
statistic test.sensor[1].sinkApp[0] rxRFLatency:histogram
field count 0
field mean nan
field stddev nan
field min nan
field max nan
field sum 0
field sqrsum 0
attr interpolationmode linear
attr source timestampAge(rxRF)
attr title "End-to-end latency of remote frames, histogram"
attr unit s
bin	-inf	0
bin	0	0
bin	1	0
scalar test.sensor[1].sinkApp[0] rxDF:count 0
attr source rxDF
attr title "sink app data frame, count"
statistic test.sensor[1].sinkApp[0] rxDFLatency:stats
field count 0
field mean nan
field stddev nan
field min nan
field max nan
field sum 0
field sqrsum 0
attr interpolationmode linear
attr source timestampAge(rxDF)
attr title "End-to-end latency of data frames, stats"
attr unit s
statistic test.sensor[1].sinkApp[0] rxDFLatency:histogram
field count 0
field mean nan
field stddev nan
field min nan
field max nan
field sum 0
field sqrsum 0
attr interpolationmode linear
attr source timestampAge(rxDF)
attr title "End-to-end latency of data frames, histogram"
attr unit s
bin	-inf	0
bin	0	0
bin	1	0
statistic test.sensor[1].canClock clockDrift:stats
field count 2
field mean 0
field stddev 0
field min 0
field max 0
field sum 0
field sqrsum 0
attr interpolationmode linear
attr source clockDrift
attr title "clockDrift, stats"
attr unit s
statistic test.sensor[1].canClock clockDrift:histogram
field count 2
field mean 0
field stddev 0
field min 0
field max 0
field sum 0
field sqrsum 0
attr interpolationmode linear
attr source clockDrift
attr title "clockDrift, histogram"
attr unit s
bin	-inf	0
bin	-0.5	0
bin	-0.48	0
bin	-0.46	0
bin	-0.44	0
bin	-0.42	0
bin	-0.4	0
bin	-0.38	0
bin	-0.36	0
bin	-0.34	0
bin	-0.32	0
bin	-0.3	0
bin	-0.28	0
bin	-0.26	0
bin	-0.24	0
bin	-0.22	0
bin	-0.2	0
bin	-0.18	0
bin	-0.16	0
bin	-0.14	0
bin	-0.12	0
bin	-0.1	0
bin	-0.08	0
bin	-0.06	0
bin	-0.04	0
bin	-0.02	0
bin	0	2
bin	0.02	0
bin	0.04	0
bin	0.06	0
bin	0.08	0
bin	0.1	0
bin	0.12	0
bin	0.14	0
bin	0.16	0
bin	0.18	0
bin	0.2	0
bin	0.22	0
bin	0.24	0
bin	0.26	0
bin	0.28	0
bin	0.3	0
bin	0.32	0
bin	0.34	0
bin	0.36	0
bin	0.38	0
bin	0.4	0
bin	0.42	0
bin	0.44	0
bin	0.46	0
bin	0.48	0
bin	0.5	0
statistic test.sensor[2].canNodePort.canPortInput rxRFPayloadLatency:stats
field count 0
field mean nan
field stddev nan
field min nan
field max nan
field sum 0
field sqrsum 0
attr interpolationmode linear
attr source timestampAge(rxRFPayload)
attr title "End-to-end latency of remote frame payload, stats"
attr unit s
statistic test.sensor[2].canNodePort.canPortInput rxRFPayloadLatency:histogram
field count 0
field mean nan
field stddev nan
field min nan
field max nan
field sum 0
field sqrsum 0
attr interpolationmode linear
attr source timestampAge(rxRFPayload)
attr title "End-to-end latency of remote frame payload, histogram"
attr unit s
bin	-inf	0
bin	0	0
bin	1	0
statistic test.sensor[2].canNodePort.canPortInput rxDFPayloadLatency:stats
field count 0
field mean nan
field stddev nan
field min nan
field max nan
field sum 0
field sqrsum 0
attr interpolationmode linear
attr source timestampAge(rxDFPayload)
attr title "End-to-end latency of data frame payload, stats"
attr unit s
statistic test.sensor[2].canNodePort.canPortInput rxDFPayloadLatency:histogram
field count 0
field mean nan
field stddev nan
field min nan
field max nan
field sum 0
field sqrsum 0
attr interpolationmode linear
attr source timestampAge(rxDFPayload)
attr title "End-to-end latency of data frame payload, histogram"
attr unit s
bin	-inf	0
bin	0	0
bin	1	0
scalar test.sensor[2].canNodePort.canPortInput rxRF:count 0
attr source rxRF
attr title "complete remote frames received, count"
statistic test.sensor[2].canNodePort.canPortInput rxRFLatency:stats
field count 0
field mean nan
field stddev nan
field min nan
field max nan
field sum 0
field sqrsum 0
attr interpolationmode linear
attr source timestampAge(rxRF)
attr title "End-to-end latency of remote frames, stats"
attr unit s
statistic test.sensor[2].canNodePort.canPortInput rxRFLatency:histogram
field count 0
field mean nan
field stddev nan
field min nan
field max nan
field sum 0
field sqrsum 0
attr interpolationmode linear
attr source timestampAge(rxRF)
attr title "End-to-end latency of remote frames, histogram"
attr unit s
bin	-inf	0
bin	0	0
bin	1	0
scalar test.sensor[2].canNodePort.canPortInput rxDF:count 0
attr source rxDF
attr title "complete data frames received, count"
statistic test.sensor[2].canNodePort.canPortInput rxDFLatency:stats
field count 0
field mean nan
field stddev nan
field min nan
field max nan
field sum 0
field sqrsum 0
attr interpolationmode linear
attr source timestampAge(rxDF)
attr title "End-to-end latency of data frames, stats"
attr unit s
statistic test.sensor[2].canNodePort.canPortInput rxDFLatency:histogram
field count 0
field mean nan
field stddev nan
field min nan
field max nan
field sum 0
field sqrsum 0
attr interpolationmode linear
attr source timestampAge(rxDF)
attr title "End-to-end latency of data frames, histogram"
attr unit s
bin	-inf	0
bin	0	0
bin	1	0
scalar test.sensor[2].canNodePort.canPortOutput txEF:count 0
attr source txEF
attr title "sent errors, count"
scalar test.sensor[2].canNodePort.canPortOutput txRF:count 0
attr source txRF
attr title "sent remote frames, count"
scalar test.sensor[2].canNodePort.canPortOutput txDF:count 1
attr source txDF
attr title "sent data frames, count"
scalar test.sensor[2].canNodePort.canPortOutput rxEF:count 0
attr source rxEF
attr title "receive errors, count"
scalar test.sensor[2].bufferIn[0] rxPk:count 0
attr interpolationmode none
attr source rxPk
attr title "RX Packets, count"
scalar test.sensor[2].bufferIn[0] rxPk:sum(packetBytes) 0
attr interpolationmode none
attr source rxPk
attr title "RX Packets, sum(packetBytes)"
statistic test.sensor[2].bufferIn[0] size:stats
field count 0
field mean nan
field stddev nan
field min nan
field max nan
field sum 0
field sqrsum 0
attr interpolationmode sample-hold
attr source size
attr title "Queue Size, stats"
attr unit B
statistic test.sensor[2].bufferIn[0] length:stats
field count 0
field mean nan
field stddev nan
field min nan
field max nan
field sum 0
field sqrsum 0
attr interpolationmode sample-hold
attr source length
attr title "Queue Length, stats"
attr unit packets
scalar test.sensor[2].bufferIn[0] txPk:count 0
attr interpolationmode none
attr source txPk
attr title "TX Packets, count"
scalar test.sensor[2].bufferIn[0] txPk:sum(packetBytes) 0
attr interpolationmode none
attr source txPk
attr title "TX Packets, sum(packetBytes)"
scalar test.sensor[2].bufferOut rxPk:count 2
attr interpolationmode none
attr source rxPk
attr title "RX Packets, count"
scalar test.sensor[2].bufferOut rxPk:sum(packetBytes) 28
attr interpolationmode none
attr source rxPk
attr title "RX Packets, sum(packetBytes)"
statistic test.sensor[2].bufferOut size:stats
field count 2
field mean 7
field stddev 9.8994949366117
field min 0
field max 14
field sum 14
field sqrsum 196
attr interpolationmode sample-hold
attr source size
attr title "Queue Size, stats"
attr unit B
statistic test.sensor[2].bufferOut length:stats
field count 2
field mean 0.5
field stddev 0.70710678118655
field min 0
field max 1
field sum 1
field sqrsum 1
attr interpolationmode sample-hold
attr source length
attr title "Queue Length, stats"
attr unit packets
scalar test.sensor[2].bufferOut txPk:count 1
attr interpolationmode none
attr source txPk
attr title "TX Packets, count"
scalar test.sensor[2].bufferOut txPk:sum(packetBytes) 14
attr interpolationmode none
attr source txPk
attr title "TX Packets, sum(packetBytes)"
scalar test.sensor[2].sourceApp[0] txRF:count 0
attr source txRF
attr title "source app remote frame, count"
scalar test.sensor[2].sourceApp[0] txDF:count 1
attr source txDF
attr title "source app data frame, count"
statistic test.sensor[2].sinkApp[0] rxRFPayloadLatency:stats
field count 0
field mean nan
field stddev nan
field min nan
field max nan
field sum 0
field sqrsum 0
attr interpolationmode linear
attr source timestampAge(rxRFPayload)
attr title "End-to-end latency of remote frame payload, stats"
attr unit s
statistic test.sensor[2].sinkApp[0] rxRFPayloadLatency:histogram
field count 0
field mean nan
field stddev nan
field min nan
field max nan
field sum 0
field sqrsum 0
attr interpolationmode linear
attr source timestampAge(rxRFPayload)
attr title "End-to-end latency of remote frame payload, histogram"
attr unit s
bin	-inf	0
bin	0	0
bin	1	0
statistic test.sensor[2].sinkApp[0] rxDFPayloadLatency:stats
field count 0
field mean nan
field stddev nan
field min nan
field max nan
field sum 0
field sqrsum 0
attr interpolationmode linear
attr source timestampAge(rxDFPayload)
attr title "End-to-end latency of data frame payload, stats"
attr unit s
statistic test.sensor[2].sinkApp[0] rxDFPayloadLatency:histogram
field count 0
field mean nan
field stddev nan
field min nan
field max nan
field sum 0
field sqrsum 0
attr interpolationmode linear
attr source timestampAge(rxDFPayload)
attr title "End-to-end latency of data frame payload, histogram"
attr unit s
bin	-inf	0
bin	0	0
bin	1	0
scalar test.sensor[2].sinkApp[0] rxRF:count 0
attr source rxRF
attr title "sink app remote frame, count"
statistic test.sensor[2].sinkApp[0] rxRFLatency:stats
field count 0
field mean nan
field stddev nan
field min nan
field max nan
field sum 0
field sqrsum 0
attr interpolationmode linear
attr source timestampAge(rxRF)
attr title "End-to-end latency of remote frames, stats"
attr unit s
statistic test.sensor[2].sinkApp[0] rxRFLatency:histogram
field count 0
field mean nan
field stddev nan
field min nan
field max nan
field sum 0
field sqrsum 0
attr interpolationmode linear
attr source timestampAge(rxRF)
attr title "End-to-end latency of remote frames, histogram"
attr unit s
bin	-inf	0
bin	0	0
bin	1	0
scalar test.sensor[2].sinkApp[0] rxDF:count 0
attr source rxDF
attr title "sink app data frame, count"
statistic test.sensor[2].sinkApp[0] rxDFLatency:stats
field count 0
field mean nan
field stddev nan
field min nan
field max nan
field sum 0
field sqrsum 0
attr interpolationmode linear
attr source timestampAge(rxDF)
attr title "End-to-end latency of data frames, stats"
attr unit s
statistic test.sensor[2].sinkApp[0] rxDFLatency:histogram
field count 0
field mean nan
field stddev nan
field min nan
field max nan
field sum 0
field sqrsum 0
attr interpolationmode linear
attr source timestampAge(rxDF)
attr title "End-to-end latency of data frames, histogram"
attr unit s
bin	-inf	0
bin	0	0
bin	1	0
statistic test.sensor[2].canClock clockDrift:stats
field count 2
field mean 0
field stddev 0
field min 0
field max 0
field sum 0
field sqrsum 0
attr interpolationmode linear
attr source clockDrift
attr title "clockDrift, stats"
attr unit s
statistic test.sensor[2].canClock clockDrift:histogram
field count 2
field mean 0
field stddev 0
field min 0
field max 0
field sum 0
field sqrsum 0
attr interpolationmode linear
attr source clockDrift
attr title "clockDrift, histogram"
attr unit s
bin	-inf	0
bin	-0.5	0
bin	-0.48	0
bin	-0.46	0
bin	-0.44	0
bin	-0.42	0
bin	-0.4	0
bin	-0.38	0
bin	-0.36	0
bin	-0.34	0
bin	-0.32	0
bin	-0.3	0
bin	-0.28	0
bin	-0.26	0
bin	-0.24	0
bin	-0.22	0
bin	-0.2	0
bin	-0.18	0
bin	-0.16	0
bin	-0.14	0
bin	-0.12	0
bin	-0.1	0
bin	-0.08	0
bin	-0.06	0
bin	-0.04	0
bin	-0.02	0
bin	0	2
bin	0.02	0
bin	0.04	0
bin	0.06	0
bin	0.08	0
bin	0.1	0
bin	0.12	0
bin	0.14	0
bin	0.16	0
bin	0.18	0
bin	0.2	0
bin	0.22	0
bin	0.24	0
bin	0.26	0
bin	0.28	0
bin	0.3	0
bin	0.32	0
bin	0.34	0
bin	0.36	0
bin	0.38	0
bin	0.4	0
bin	0.42	0
bin	0.44	0
bin	0.46	0
bin	0.48	0
bin	0.5	0
statistic test.sensor[3].canNodePort.canPortInput rxRFPayloadLatency:stats
field count 0
field mean nan
field stddev nan
field min nan
field max nan
field sum 0
field sqrsum 0
attr interpolationmode linear
attr source timestampAge(rxRFPayload)
attr title "End-to-end latency of remote frame payload, stats"
attr unit s
statistic test.sensor[3].canNodePort.canPortInput rxRFPayloadLatency:histogram
field count 0
field mean nan
field stddev nan
field min nan
field max nan
field sum 0
field sqrsum 0
attr interpolationmode linear
attr source timestampAge(rxRFPayload)
attr title "End-to-end latency of remote frame payload, histogram"
attr unit s
bin	-inf	0
bin	0	0
bin	1	0
statistic test.sensor[3].canNodePort.canPortInput rxDFPayloadLatency:stats
field count 0
field mean nan
field stddev nan
field min nan
field max nan
field sum 0
field sqrsum 0
attr interpolationmode linear
attr source timestampAge(rxDFPayload)
attr title "End-to-end latency of data frame payload, stats"
attr unit s
statistic test.sensor[3].canNodePort.canPortInput rxDFPayloadLatency:histogram
field count 0
field mean nan
field stddev nan
field min nan
field max nan
field sum 0
field sqrsum 0
attr interpolationmode linear
attr source timestampAge(rxDFPayload)
attr title "End-to-end latency of data frame payload, histogram"
attr unit s
bin	-inf	0
bin	0	0
bin	1	0
scalar test.sensor[3].canNodePort.canPortInput rxRF:count 0
attr source rxRF
attr title "complete remote frames received, count"
statistic test.sensor[3].canNodePort.canPortInput rxRFLatency:stats
field count 0
field mean nan
field stddev nan
field min nan
field max nan
field sum 0
field sqrsum 0
attr interpolationmode linear
attr source timestampAge(rxRF)
attr title "End-to-end latency of remote frames, stats"
attr unit s
statistic test.sensor[3].canNodePort.canPortInput rxRFLatency:histogram
field count 0
field mean nan
field stddev nan
field min nan
field max nan
field sum 0
field sqrsum 0
attr interpolationmode linear
attr source timestampAge(rxRF)
attr title "End-to-end latency of remote frames, histogram"
attr unit s
bin	-inf	0
bin	0	0
bin	1	0
scalar test.sensor[3].canNodePort.canPortInput rxDF:count 0
attr source rxDF
attr title "complete data frames received, count"
statistic test.sensor[3].canNodePort.canPortInput rxDFLatency:stats
field count 0
field mean nan
field stddev nan
field min nan
field max nan
field sum 0
field sqrsum 0
attr interpolationmode linear
attr source timestampAge(rxDF)
attr title "End-to-end latency of data frames, stats"
attr unit s
statistic test.sensor[3].canNodePort.canPortInput rxDFLatency:histogram
field count 0
field mean nan
field stddev nan
field min nan
field max nan
field sum 0
field sqrsum 0
attr interpolationmode linear
attr source timestampAge(rxDF)
attr title "End-to-end latency of data frames, histogram"
attr unit s
bin	-inf	0
bin	0	0
bin	1	0
scalar test.sensor[3].canNodePort.canPortOutput txEF:count 0
attr source txEF
attr title "sent errors, count"
scalar test.sensor[3].canNodePort.canPortOutput txRF:count 0
attr source txRF
attr title "sent remote frames, count"
scalar test.sensor[3].canNodePort.canPortOutput txDF:count 1
attr source txDF
attr title "sent data frames, count"
scalar test.sensor[3].canNodePort.canPortOutput rxEF:count 0
attr source rxEF
attr title "receive errors, count"
scalar test.sensor[3].bufferIn[0] rxPk:count 0
attr interpolationmode none
attr source rxPk
attr title "RX Packets, count"
scalar test.sensor[3].bufferIn[0] rxPk:sum(packetBytes) 0
attr interpolationmode none
attr source rxPk
attr title "RX Packets, sum(packetBytes)"
statistic test.sensor[3].bufferIn[0] size:stats
field count 0
field mean nan
field stddev nan
field min nan
field max nan
field sum 0
field sqrsum 0
attr interpolationmode sample-hold
attr source size
attr title "Queue Size, stats"
attr unit B
statistic test.sensor[3].bufferIn[0] length:stats
field count 0
field mean nan
field stddev nan
field min nan
field max nan
field sum 0
field sqrsum 0
attr interpolationmode sample-hold
attr source length
attr title "Queue Length, stats"
attr unit packets
scalar test.sensor[3].bufferIn[0] txPk:count 0
attr interpolationmode none
attr source txPk
attr title "TX Packets, count"
scalar test.sensor[3].bufferIn[0] txPk:sum(packetBytes) 0
attr interpolationmode none
attr source txPk
attr title "TX Packets, sum(packetBytes)"
scalar test.sensor[3].bufferOut rxPk:count 2
attr interpolationmode none
attr source rxPk
attr title "RX Packets, count"
scalar test.sensor[3].bufferOut rxPk:sum(packetBytes) 28
attr interpolationmode none
attr source rxPk
attr title "RX Packets, sum(packetBytes)"
statistic test.sensor[3].bufferOut size:stats
field count 2
field mean 7
field stddev 9.8994949366117
field min 0
field max 14
field sum 14
field sqrsum 196
attr interpolationmode sample-hold
attr source size
attr title "Queue Size, stats"
attr unit B
statistic test.sensor[3].bufferOut length:stats
field count 2
field mean 0.5
field stddev 0.70710678118655
field min 0
field max 1
field sum 1
field sqrsum 1
attr interpolationmode sample-hold
attr source length
attr title "Queue Length, stats"
attr unit packets
scalar test.sensor[3].bufferOut txPk:count 1
attr interpolationmode none
attr source txPk
attr title "TX Packets, count"
scalar test.sensor[3].bufferOut txPk:sum(packetBytes) 14
attr interpolationmode none
attr source txPk
attr title "TX Packets, sum(packetBytes)"
scalar test.sensor[3].sourceApp[0] txRF:count 0
attr source txRF
attr title "source app remote frame, count"
scalar test.sensor[3].sourceApp[0] txDF:count 1
attr source txDF
attr title "source app data frame, count"
statistic test.sensor[3].sinkApp[0] rxRFPayloadLatency:stats
field count 0
field mean nan
field stddev nan
field min nan
field max nan
field sum 0
field sqrsum 0
attr interpolationmode linear
attr source timestampAge(rxRFPayload)
attr title "End-to-end latency of remote frame payload, stats"
attr unit s
statistic test.sensor[3].sinkApp[0] rxRFPayloadLatency:histogram
field count 0
field mean nan
field stddev nan
field min nan
field max nan
field sum 0
field sqrsum 0
attr interpolationmode linear
attr source timestampAge(rxRFPayload)
attr title "End-to-end latency of remote frame payload, histogram"
attr unit s
bin	-inf	0
bin	0	0
bin	1	0
statistic test.sensor[3].sinkApp[0] rxDFPayloadLatency:stats
field count 0
field mean nan
field stddev nan
field min nan
field max nan
field sum 0
field sqrsum 0
attr interpolationmode linear
attr source timestampAge(rxDFPayload)
attr title "End-to-end latency of data frame payload, stats"
attr unit s
statistic test.sensor[3].sinkApp[0] rxDFPayloadLatency:histogram
field count 0
field mean nan
field stddev nan
field min nan
field max nan
field sum 0
field sqrsum 0
attr interpolationmode linear
attr source timestampAge(rxDFPayload)
attr title "End-to-end latency of data frame payload, histogram"
attr unit s
bin	-inf	0
bin	0	0
bin	1	0
scalar test.sensor[3].sinkApp[0] rxRF:count 0
attr source rxRF
attr title "sink app remote frame, count"
statistic test.sensor[3].sinkApp[0] rxRFLatency:stats
field count 0
field mean nan
field stddev nan
field min nan
field max nan
field sum 0
field sqrsum 0
attr interpolationmode linear
attr source timestampAge(rxRF)
attr title "End-to-end latency of remote frames, stats"
attr unit s
statistic test.sensor[3].sinkApp[0] rxRFLatency:histogram
field count 0
field mean nan
field stddev nan
field min nan
field max nan
field sum 0
field sqrsum 0
attr interpolationmode linear
attr source timestampAge(rxRF)
attr title "End-to-end latency of remote frames, histogram"
attr unit s
bin	-inf	0
bin	0	0
bin	1	0
scalar test.sensor[3].sinkApp[0] rxDF:count 0
attr source rxDF
attr title "sink app data frame, count"
statistic test.sensor[3].sinkApp[0] rxDFLatency:stats
field count 0
field mean nan
field stddev nan
field min nan
field max nan
field sum 0
field sqrsum 0
attr interpolationmode linear
attr source timestampAge(rxDF)
attr title "End-to-end latency of data frames, stats"
attr unit s
statistic test.sensor[3].sinkApp[0] rxDFLatency:histogram
field count 0
field mean nan
field stddev nan
field min nan
field max nan
field sum 0
field sqrsum 0
attr interpolationmode linear
attr source timestampAge(rxDF)
attr title "End-to-end latency of data frames, histogram"
attr unit s
bin	-inf	0
bin	0	0
bin	1	0
statistic test.sensor[3].canClock clockDrift:stats
field count 2
field mean 0
field stddev 0
field min 0
field max 0
field sum 0
field sqrsum 0
attr interpolationmode linear
attr source clockDrift
attr title "clockDrift, stats"
attr unit s
statistic test.sensor[3].canClock clockDrift:histogram
field count 2
field mean 0
field stddev 0
field min 0
field max 0
field sum 0
field sqrsum 0
attr interpolationmode linear
attr source clockDrift
attr title "clockDrift, histogram"
attr unit s
bin	-inf	0
bin	-0.5	0
bin	-0.48	0
bin	-0.46	0
bin	-0.44	0
bin	-0.42	0
bin	-0.4	0
bin	-0.38	0
bin	-0.36	0
bin	-0.34	0
bin	-0.32	0
bin	-0.3	0
bin	-0.28	0
bin	-0.26	0
bin	-0.24	0
bin	-0.22	0
bin	-0.2	0
bin	-0.18	0
bin	-0.16	0
bin	-0.14	0
bin	-0.12	0
bin	-0.1	0
bin	-0.08	0
bin	-0.06	0
bin	-0.04	0
bin	-0.02	0
bin	0	2
bin	0.02	0
bin	0.04	0
bin	0.06	0
bin	0.08	0
bin	0.1	0
bin	0.12	0
bin	0.14	0
bin	0.16	0
bin	0.18	0
bin	0.2	0
bin	0.22	0
bin	0.24	0
bin	0.26	0
bin	0.28	0
bin	0.3	0
bin	0.32	0
bin	0.34	0
bin	0.36	0
bin	0.38	0
bin	0.4	0
bin	0.42	0
bin	0.44	0
bin	0.46	0
bin	0.48	0
bin	0.5	0
statistic test.canbus2.canBusLogic arbitrationLength:stats
field count 2
field mean 0.5
field stddev 0.70710678118655
field min 0
field max 1
field sum 1
field sqrsum 1
attr interpolationmode sample-hold
attr source arbitrationLength
attr title "Arbitration Length, stats"
attr unit packets
scalar test.canbus2.canBusLogic utilization:last 100
attr source lowHighRatio(state)*100
attr title "Utilization, last"
attr unit %
scalar test.canbus2.canBusLogic rxEF:count 0
attr interpolationmode none
attr source rxEF
attr title "error frames received, count"
statistic test.canbus2.canBusLogic rxCANIdEF:histogram
field count 0
field mean nan
field stddev nan
field min nan
field max nan
field sum 0
field sqrsum 0
attr interpolationmode none
attr source ID(rxEF)
attr title "received CAN IDs via EF, histogram"
bin	-inf	0
bin	0	0
bin	1	0
scalar test.canbus2.canBusLogic rxRF:count 0
attr interpolationmode none
attr source rxRF
attr title "remote frames received, count"
statistic test.canbus2.canBusLogic rxCANIdRF:histogram
field count 0
field mean nan
field stddev nan
field min nan
field max nan
field sum 0
field sqrsum 0
attr interpolationmode none
attr source ID(rxRF)
attr title "received CAN IDs via RF, histogram"
bin	-inf	0
bin	0	0
bin	1	0
scalar test.canbus2.canBusLogic rxDF:count 1
attr interpolationmode none
attr source rxDF
attr title "data frames received, count"
statistic test.canbus2.canBusLogic rxCANIdDF:histogram
field count 1
field mean 3
field stddev nan
field min 3
field max 3
field sum 3
field sqrsum 9
attr interpolationmode none
attr source ID(rxDF)
attr title "received CAN IDs via DF, histogram"
bin	-inf	0
bin	2	0
bin	3	1
bin	4	0
scalar test.canbus2.canBusLogic framesPerSec:last 1632.3332571578
attr source sumPerDuration(constant1(rxPk))
attr title "Frames/sec, last"
attr unit fps
scalar test.canbus2.canBusLogic bitsPerSec:last 181188.99154451
attr source sumPerDuration(packetBits(rxPk))
attr title "Bits/sec, last"
attr unit bps
statistic test.aktor[0].canNodePort.canPortInput rxRFPayloadLatency:stats
field count 0
field mean nan
field stddev nan
field min nan
field max nan
field sum 0
field sqrsum 0
attr interpolationmode linear
attr source timestampAge(rxRFPayload)
attr title "End-to-end latency of remote frame payload, stats"
attr unit s
statistic test.aktor[0].canNodePort.canPortInput rxRFPayloadLatency:histogram
field count 0
field mean nan
field stddev nan
field min nan
field max nan
field sum 0
field sqrsum 0
attr interpolationmode linear
attr source timestampAge(rxRFPayload)
attr title "End-to-end latency of remote frame payload, histogram"
attr unit s
bin	-inf	0
bin	0	0
bin	1	0
statistic test.aktor[0].canNodePort.canPortInput rxDFPayloadLatency:stats
field count 0
field mean nan
field stddev nan
field min nan
field max nan
field sum 0
field sqrsum 0
attr interpolationmode linear
attr source timestampAge(rxDFPayload)
attr title "End-to-end latency of data frame payload, stats"
attr unit s
statistic test.aktor[0].canNodePort.canPortInput rxDFPayloadLatency:histogram
field count 0
field mean nan
field stddev nan
field min nan
field max nan
field sum 0
field sqrsum 0
attr interpolationmode linear
attr source timestampAge(rxDFPayload)
attr title "End-to-end latency of data frame payload, histogram"
attr unit s
bin	-inf	0
bin	0	0
bin	1	0
scalar test.aktor[0].canNodePort.canPortInput rxRF:count 0
attr source rxRF
attr title "complete remote frames received, count"
statistic test.aktor[0].canNodePort.canPortInput rxRFLatency:stats
field count 0
field mean nan
field stddev nan
field min nan
field max nan
field sum 0
field sqrsum 0
attr interpolationmode linear
attr source timestampAge(rxRF)
attr title "End-to-end latency of remote frames, stats"
attr unit s
statistic test.aktor[0].canNodePort.canPortInput rxRFLatency:histogram
field count 0
field mean nan
field stddev nan
field min nan
field max nan
field sum 0
field sqrsum 0
attr interpolationmode linear
attr source timestampAge(rxRF)
attr title "End-to-end latency of remote frames, histogram"
attr unit s
bin	-inf	0
bin	0	0
bin	1	0
scalar test.aktor[0].canNodePort.canPortInput rxDF:count 0
attr source rxDF
attr title "complete data frames received, count"
statistic test.aktor[0].canNodePort.canPortInput rxDFLatency:stats
field count 0
field mean nan
field stddev nan
field min nan
field max nan
field sum 0
field sqrsum 0
attr interpolationmode linear
attr source timestampAge(rxDF)
attr title "End-to-end latency of data frames, stats"
attr unit s
statistic test.aktor[0].canNodePort.canPortInput rxDFLatency:histogram
field count 0
field mean nan
field stddev nan
field min nan
field max nan
field sum 0
field sqrsum 0
attr interpolationmode linear
attr source timestampAge(rxDF)
attr title "End-to-end latency of data frames, histogram"
attr unit s
bin	-inf	0
bin	0	0
bin	1	0
scalar test.aktor[0].canNodePort.canPortOutput txEF:count 0
attr source txEF
attr title "sent errors, count"
scalar test.aktor[0].canNodePort.canPortOutput txRF:count 0
attr source txRF
attr title "sent remote frames, count"
scalar test.aktor[0].canNodePort.canPortOutput txDF:count 0
attr source txDF
attr title "sent data frames, count"
scalar test.aktor[0].canNodePort.canPortOutput rxEF:count 0
attr source rxEF
attr title "receive errors, count"
scalar test.aktor[0].bufferIn[0] rxPk:count 0
attr interpolationmode none
attr source rxPk
attr title "RX Packets, count"
scalar test.aktor[0].bufferIn[0] rxPk:sum(packetBytes) 0
attr interpolationmode none
attr source rxPk
attr title "RX Packets, sum(packetBytes)"
statistic test.aktor[0].bufferIn[0] size:stats
field count 0
field mean nan
field stddev nan
field min nan
field max nan
field sum 0
field sqrsum 0
attr interpolationmode sample-hold
attr source size
attr title "Queue Size, stats"
attr unit B
statistic test.aktor[0].bufferIn[0] length:stats
field count 0
field mean nan
field stddev nan
field min nan
field max nan
field sum 0
field sqrsum 0
attr interpolationmode sample-hold
attr source length
attr title "Queue Length, stats"
attr unit packets
scalar test.aktor[0].bufferIn[0] txPk:count 0
attr interpolationmode none
attr source txPk
attr title "TX Packets, count"
scalar test.aktor[0].bufferIn[0] txPk:sum(packetBytes) 0
attr interpolationmode none
attr source txPk
attr title "TX Packets, sum(packetBytes)"
scalar test.aktor[0].bufferOut rxPk:count 0
attr interpolationmode none
attr source rxPk
attr title "RX Packets, count"
scalar test.aktor[0].bufferOut rxPk:sum(packetBytes) 0
attr interpolationmode none
attr source rxPk
attr title "RX Packets, sum(packetBytes)"
statistic test.aktor[0].bufferOut size:stats
field count 0
field mean nan
field stddev nan
field min nan
field max nan
field sum 0
field sqrsum 0
attr interpolationmode sample-hold
attr source size
attr title "Queue Size, stats"
attr unit B
statistic test.aktor[0].bufferOut length:stats
field count 0
field mean nan
field stddev nan
field min nan
field max nan
field sum 0
field sqrsum 0
attr interpolationmode sample-hold
attr source length
attr title "Queue Length, stats"
attr unit packets
scalar test.aktor[0].bufferOut txPk:count 0
attr interpolationmode none
attr source txPk
attr title "TX Packets, count"
scalar test.aktor[0].bufferOut txPk:sum(packetBytes) 0
attr interpolationmode none
attr source txPk
attr title "TX Packets, sum(packetBytes)"
scalar test.aktor[0].sourceApp[0] txRF:count 0
attr source txRF
attr title "source app remote frame, count"
scalar test.aktor[0].sourceApp[0] txDF:count 0
attr source txDF
attr title "source app data frame, count"
statistic test.aktor[0].sinkApp[0] rxRFPayloadLatency:stats
field count 0
field mean nan
field stddev nan
field min nan
field max nan
field sum 0
field sqrsum 0
attr interpolationmode linear
attr source timestampAge(rxRFPayload)
attr title "End-to-end latency of remote frame payload, stats"
attr unit s
statistic test.aktor[0].sinkApp[0] rxRFPayloadLatency:histogram
field count 0
field mean nan
field stddev nan
field min nan
field max nan
field sum 0
field sqrsum 0
attr interpolationmode linear
attr source timestampAge(rxRFPayload)
attr title "End-to-end latency of remote frame payload, histogram"
attr unit s
bin	-inf	0
bin	0	0
bin	1	0
statistic test.aktor[0].sinkApp[0] rxDFPayloadLatency:stats
field count 0
field mean nan
field stddev nan
field min nan
field max nan
field sum 0
field sqrsum 0
attr interpolationmode linear
attr source timestampAge(rxDFPayload)
attr title "End-to-end latency of data frame payload, stats"
attr unit s
statistic test.aktor[0].sinkApp[0] rxDFPayloadLatency:histogram
field count 0
field mean nan
field stddev nan
field min nan
field max nan
field sum 0
field sqrsum 0
attr interpolationmode linear
attr source timestampAge(rxDFPayload)
attr title "End-to-end latency of data frame payload, histogram"
attr unit s
bin	-inf	0
bin	0	0
bin	1	0
scalar test.aktor[0].sinkApp[0] rxRF:count 0
attr source rxRF
attr title "sink app remote frame, count"
statistic test.aktor[0].sinkApp[0] rxRFLatency:stats
field count 0
field mean nan
field stddev nan
field min nan
field max nan
field sum 0
field sqrsum 0
attr interpolationmode linear
attr source timestampAge(rxRF)
attr title "End-to-end latency of remote frames, stats"
attr unit s
statistic test.aktor[0].sinkApp[0] rxRFLatency:histogram
field count 0
field mean nan
field stddev nan
field min nan
field max nan
field sum 0
field sqrsum 0
attr interpolationmode linear
attr source timestampAge(rxRF)
attr title "End-to-end latency of remote frames, histogram"
attr unit s
bin	-inf	0
bin	0	0
bin	1	0
scalar test.aktor[0].sinkApp[0] rxDF:count 0
attr source rxDF
attr title "sink app data frame, count"
statistic test.aktor[0].sinkApp[0] rxDFLatency:stats
field count 0
field mean nan
field stddev nan
field min nan
field max nan
field sum 0
field sqrsum 0
attr interpolationmode linear
attr source timestampAge(rxDF)
attr title "End-to-end latency of data frames, stats"
attr unit s
statistic test.aktor[0].sinkApp[0] rxDFLatency:histogram
field count 0
field mean nan
field stddev nan
field min nan
field max nan
field sum 0
field sqrsum 0
attr interpolationmode linear
attr source timestampAge(rxDF)
attr title "End-to-end latency of data frames, histogram"
attr unit s
bin	-inf	0
bin	0	0
bin	1	0
statistic test.aktor[0].canClock clockDrift:stats
field count 1
field mean 0
field stddev nan
field min 0
field max 0
field sum 0
field sqrsum 0
attr interpolationmode linear
attr source clockDrift
attr title "clockDrift, stats"
attr unit s
statistic test.aktor[0].canClock clockDrift:histogram
field count 1
field mean 0
field stddev nan
field min 0
field max 0
field sum 0
field sqrsum 0
attr interpolationmode linear
attr source clockDrift
attr title "clockDrift, histogram"
attr unit s
bin	-inf	0
bin	-0.5	0
bin	-0.48	0
bin	-0.46	0
bin	-0.44	0
bin	-0.42	0
bin	-0.4	0
bin	-0.38	0
bin	-0.36	0
bin	-0.34	0
bin	-0.32	0
bin	-0.3	0
bin	-0.28	0
bin	-0.26	0
bin	-0.24	0
bin	-0.22	0
bin	-0.2	0
bin	-0.18	0
bin	-0.16	0
bin	-0.14	0
bin	-0.12	0
bin	-0.1	0
bin	-0.08	0
bin	-0.06	0
bin	-0.04	0
bin	-0.02	0
bin	0	1
bin	0.02	0
bin	0.04	0
bin	0.06	0
bin	0.08	0
bin	0.1	0
bin	0.12	0
bin	0.14	0
bin	0.16	0
bin	0.18	0
bin	0.2	0
bin	0.22	0
bin	0.24	0
bin	0.26	0
bin	0.28	0
bin	0.3	0
bin	0.32	0
bin	0.34	0
bin	0.36	0
bin	0.38	0
bin	0.4	0
bin	0.42	0
bin	0.44	0
bin	0.46	0
bin	0.48	0
bin	0.5	0
statistic test.aktor[1].canNodePort.canPortInput rxRFPayloadLatency:stats
field count 0
field mean nan
field stddev nan
field min nan
field max nan
field sum 0
field sqrsum 0
attr interpolationmode linear
attr source timestampAge(rxRFPayload)
attr title "End-to-end latency of remote frame payload, stats"
attr unit s
statistic test.aktor[1].canNodePort.canPortInput rxRFPayloadLatency:histogram
field count 0
field mean nan
field stddev nan
field min nan
field max nan
field sum 0
field sqrsum 0
attr interpolationmode linear
attr source timestampAge(rxRFPayload)
attr title "End-to-end latency of remote frame payload, histogram"
attr unit s
bin	-inf	0
bin	0	0
bin	1	0
statistic test.aktor[1].canNodePort.canPortInput rxDFPayloadLatency:stats
field count 0
field mean nan
field stddev nan
field min nan
field max nan
field sum 0
field sqrsum 0
attr interpolationmode linear
attr source timestampAge(rxDFPayload)
attr title "End-to-end latency of data frame payload, stats"
attr unit s
statistic test.aktor[1].canNodePort.canPortInput rxDFPayloadLatency:histogram
field count 0
field mean nan
field stddev nan
field min nan
field max nan
field sum 0
field sqrsum 0
attr interpolationmode linear
attr source timestampAge(rxDFPayload)
attr title "End-to-end latency of data frame payload, histogram"
attr unit s
bin	-inf	0
bin	0	0
bin	1	0
scalar test.aktor[1].canNodePort.canPortInput rxRF:count 0
attr source rxRF
attr title "complete remote frames received, count"
statistic test.aktor[1].canNodePort.canPortInput rxRFLatency:stats
field count 0
field mean nan
field stddev nan
field min nan
field max nan
field sum 0
field sqrsum 0
attr interpolationmode linear
attr source timestampAge(rxRF)
attr title "End-to-end latency of remote frames, stats"
attr unit s
statistic test.aktor[1].canNodePort.canPortInput rxRFLatency:histogram
field count 0
field mean nan
field stddev nan
field min nan
field max nan
field sum 0
field sqrsum 0
attr interpolationmode linear
attr source timestampAge(rxRF)
attr title "End-to-end latency of remote frames, histogram"
attr unit s
bin	-inf	0
bin	0	0
bin	1	0
scalar test.aktor[1].canNodePort.canPortInput rxDF:count 0
attr source rxDF
attr title "complete data frames received, count"
statistic test.aktor[1].canNodePort.canPortInput rxDFLatency:stats
field count 0
field mean nan
field stddev nan
field min nan
field max nan
field sum 0
field sqrsum 0
attr interpolationmode linear
attr source timestampAge(rxDF)
attr title "End-to-end latency of data frames, stats"
attr unit s
statistic test.aktor[1].canNodePort.canPortInput rxDFLatency:histogram
field count 0
field mean nan
field stddev nan
field min nan
field max nan
field sum 0
field sqrsum 0
attr interpolationmode linear
attr source timestampAge(rxDF)
attr title "End-to-end latency of data frames, histogram"
attr unit s
bin	-inf	0
bin	0	0
bin	1	0
scalar test.aktor[1].canNodePort.canPortOutput txEF:count 0
attr source txEF
attr title "sent errors, count"
scalar test.aktor[1].canNodePort.canPortOutput txRF:count 0
attr source txRF
attr title "sent remote frames, count"
scalar test.aktor[1].canNodePort.canPortOutput txDF:count 0
attr source txDF
attr title "sent data frames, count"
scalar test.aktor[1].canNodePort.canPortOutput rxEF:count 0
attr source rxEF
attr title "receive errors, count"
scalar test.aktor[1].bufferIn[0] rxPk:count 0
attr interpolationmode none
attr source rxPk
attr title "RX Packets, count"
scalar test.aktor[1].bufferIn[0] rxPk:sum(packetBytes) 0
attr interpolationmode none
attr source rxPk
attr title "RX Packets, sum(packetBytes)"
statistic test.aktor[1].bufferIn[0] size:stats
field count 0
field mean nan
field stddev nan
field min nan
field max nan
field sum 0
field sqrsum 0
attr interpolationmode sample-hold
attr source size
attr title "Queue Size, stats"
attr unit B
statistic test.aktor[1].bufferIn[0] length:stats
field count 0
field mean nan
field stddev nan
field min nan
field max nan
field sum 0
field sqrsum 0
attr interpolationmode sample-hold
attr source length
attr title "Queue Length, stats"
attr unit packets
scalar test.aktor[1].bufferIn[0] txPk:count 0
attr interpolationmode none
attr source txPk
attr title "TX Packets, count"
scalar test.aktor[1].bufferIn[0] txPk:sum(packetBytes) 0
attr interpolationmode none
attr source txPk
attr title "TX Packets, sum(packetBytes)"
scalar test.aktor[1].bufferOut rxPk:count 0
attr interpolationmode none
attr source rxPk
attr title "RX Packets, count"
scalar test.aktor[1].bufferOut rxPk:sum(packetBytes) 0
attr interpolationmode none
attr source rxPk
attr title "RX Packets, sum(packetBytes)"
statistic test.aktor[1].bufferOut size:stats
field count 0
field mean nan
field stddev nan
field min nan
field max nan
field sum 0
field sqrsum 0
attr interpolationmode sample-hold
attr source size
attr title "Queue Size, stats"
attr unit B
statistic test.aktor[1].bufferOut length:stats
field count 0
field mean nan
field stddev nan
field min nan
field max nan
field sum 0
field sqrsum 0
attr interpolationmode sample-hold
attr source length
attr title "Queue Length, stats"
attr unit packets
scalar test.aktor[1].bufferOut txPk:count 0
attr interpolationmode none
attr source txPk
attr title "TX Packets, count"
scalar test.aktor[1].bufferOut txPk:sum(packetBytes) 0
attr interpolationmode none
attr source txPk
attr title "TX Packets, sum(packetBytes)"
scalar test.aktor[1].sourceApp[0] txRF:count 0
attr source txRF
attr title "source app remote frame, count"
scalar test.aktor[1].sourceApp[0] txDF:count 0
attr source txDF
attr title "source app data frame, count"
statistic test.aktor[1].sinkApp[0] rxRFPayloadLatency:stats
field count 0
field mean nan
field stddev nan
field min nan
field max nan
field sum 0
field sqrsum 0
attr interpolationmode linear
attr source timestampAge(rxRFPayload)
attr title "End-to-end latency of remote frame payload, stats"
attr unit s
statistic test.aktor[1].sinkApp[0] rxRFPayloadLatency:histogram
field count 0
field mean nan
field stddev nan
field min nan
field max nan
field sum 0
field sqrsum 0
attr interpolationmode linear
attr source timestampAge(rxRFPayload)
attr title "End-to-end latency of remote frame payload, histogram"
attr unit s
bin	-inf	0
bin	0	0
bin	1	0
statistic test.aktor[1].sinkApp[0] rxDFPayloadLatency:stats
field count 0
field mean nan
field stddev nan
field min nan
field max nan
field sum 0
field sqrsum 0
attr interpolationmode linear
attr source timestampAge(rxDFPayload)
attr title "End-to-end latency of data frame payload, stats"
attr unit s
statistic test.aktor[1].sinkApp[0] rxDFPayloadLatency:histogram
field count 0
field mean nan
field stddev nan
field min nan
field max nan
field sum 0
field sqrsum 0
attr interpolationmode linear
attr source timestampAge(rxDFPayload)
attr title "End-to-end latency of data frame payload, histogram"
attr unit s
bin	-inf	0
bin	0	0
bin	1	0
scalar test.aktor[1].sinkApp[0] rxRF:count 0
attr source rxRF
attr title "sink app remote frame, count"
statistic test.aktor[1].sinkApp[0] rxRFLatency:stats
field count 0
field mean nan
field stddev nan
field min nan
field max nan
field sum 0
field sqrsum 0
attr interpolationmode linear
attr source timestampAge(rxRF)
attr title "End-to-end latency of remote frames, stats"
attr unit s
statistic test.aktor[1].sinkApp[0] rxRFLatency:histogram
field count 0
field mean nan
field stddev nan
field min nan
field max nan
field sum 0
field sqrsum 0
attr interpolationmode linear
attr source timestampAge(rxRF)
attr title "End-to-end latency of remote frames, histogram"
attr unit s
bin	-inf	0
bin	0	0
bin	1	0
scalar test.aktor[1].sinkApp[0] rxDF:count 0
attr source rxDF
attr title "sink app data frame, count"
statistic test.aktor[1].sinkApp[0] rxDFLatency:stats
field count 0
field mean nan
field stddev nan
field min nan
field max nan
field sum 0
field sqrsum 0
attr interpolationmode linear
attr source timestampAge(rxDF)
attr title "End-to-end latency of data frames, stats"
attr unit s
statistic test.aktor[1].sinkApp[0] rxDFLatency:histogram
field count 0
field mean nan
field stddev nan
field min nan
field max nan
field sum 0
field sqrsum 0
attr interpolationmode linear
attr source timestampAge(rxDF)
attr title "End-to-end latency of data frames, histogram"
attr unit s
bin	-inf	0
bin	0	0
bin	1	0
statistic test.aktor[1].canClock clockDrift:stats
field count 1
field mean 0
field stddev nan
field min 0
field max 0
field sum 0
field sqrsum 0
attr interpolationmode linear
attr source clockDrift
attr title "clockDrift, stats"
attr unit s
statistic test.aktor[1].canClock clockDrift:histogram
field count 1
field mean 0
field stddev nan
field min 0
field max 0
field sum 0
field sqrsum 0
attr interpolationmode linear
attr source clockDrift
attr title "clockDrift, histogram"
attr unit s
bin	-inf	0
bin	-0.5	0
bin	-0.48	0
bin	-0.46	0
bin	-0.44	0
bin	-0.42	0
bin	-0.4	0
bin	-0.38	0
bin	-0.36	0
bin	-0.34	0
bin	-0.32	0
bin	-0.3	0
bin	-0.28	0
bin	-0.26	0
bin	-0.24	0
bin	-0.22	0
bin	-0.2	0
bin	-0.18	0
bin	-0.16	0
bin	-0.14	0
bin	-0.12	0
bin	-0.1	0
bin	-0.08	0
bin	-0.06	0
bin	-0.04	0
bin	-0.02	0
bin	0	1
bin	0.02	0
bin	0.04	0
bin	0.06	0
bin	0.08	0
bin	0.1	0
bin	0.12	0
bin	0.14	0
bin	0.16	0
bin	0.18	0
bin	0.2	0
bin	0.22	0
bin	0.24	0
bin	0.26	0
bin	0.28	0
bin	0.3	0
bin	0.32	0
bin	0.34	0
bin	0.36	0
bin	0.38	0
bin	0.4	0
bin	0.42	0
bin	0.44	0
bin	0.46	0
bin	0.48	0
bin	0.5	0
statistic test.aktor[2].canNodePort.canPortInput rxRFPayloadLatency:stats
field count 0
field mean nan
field stddev nan
field min nan
field max nan
field sum 0
field sqrsum 0
attr interpolationmode linear
attr source timestampAge(rxRFPayload)
attr title "End-to-end latency of remote frame payload, stats"
attr unit s
statistic test.aktor[2].canNodePort.canPortInput rxRFPayloadLatency:histogram
field count 0
field mean nan
field stddev nan
field min nan
field max nan
field sum 0
field sqrsum 0
attr interpolationmode linear
attr source timestampAge(rxRFPayload)
attr title "End-to-end latency of remote frame payload, histogram"
attr unit s
bin	-inf	0
bin	0	0
bin	1	0
statistic test.aktor[2].canNodePort.canPortInput rxDFPayloadLatency:stats
field count 0
field mean nan
field stddev nan
field min nan
field max nan
field sum 0
field sqrsum 0
attr interpolationmode linear
attr source timestampAge(rxDFPayload)
attr title "End-to-end latency of data frame payload, stats"
attr unit s
statistic test.aktor[2].canNodePort.canPortInput rxDFPayloadLatency:histogram
field count 0
field mean nan
field stddev nan
field min nan
field max nan
field sum 0
field sqrsum 0
attr interpolationmode linear
attr source timestampAge(rxDFPayload)
attr title "End-to-end latency of data frame payload, histogram"
attr unit s
bin	-inf	0
bin	0	0
bin	1	0
scalar test.aktor[2].canNodePort.canPortInput rxRF:count 0
attr source rxRF
attr title "complete remote frames received, count"
statistic test.aktor[2].canNodePort.canPortInput rxRFLatency:stats
field count 0
field mean nan
field stddev nan
field min nan
field max nan
field sum 0
field sqrsum 0
attr interpolationmode linear
attr source timestampAge(rxRF)
attr title "End-to-end latency of remote frames, stats"
attr unit s
statistic test.aktor[2].canNodePort.canPortInput rxRFLatency:histogram
field count 0
field mean nan
field stddev nan
field min nan
field max nan
field sum 0
field sqrsum 0
attr interpolationmode linear
attr source timestampAge(rxRF)
attr title "End-to-end latency of remote frames, histogram"
attr unit s
bin	-inf	0
bin	0	0
bin	1	0
scalar test.aktor[2].canNodePort.canPortInput rxDF:count 0
attr source rxDF
attr title "complete data frames received, count"
statistic test.aktor[2].canNodePort.canPortInput rxDFLatency:stats
field count 0
field mean nan
field stddev nan
field min nan
field max nan
field sum 0
field sqrsum 0
attr interpolationmode linear
attr source timestampAge(rxDF)
attr title "End-to-end latency of data frames, stats"
attr unit s
statistic test.aktor[2].canNodePort.canPortInput rxDFLatency:histogram
field count 0
field mean nan
field stddev nan
field min nan
field max nan
field sum 0
field sqrsum 0
attr interpolationmode linear
attr source timestampAge(rxDF)
attr title "End-to-end latency of data frames, histogram"
attr unit s
bin	-inf	0
bin	0	0
bin	1	0
scalar test.aktor[2].canNodePort.canPortOutput txEF:count 0
attr source txEF
attr title "sent errors, count"
scalar test.aktor[2].canNodePort.canPortOutput txRF:count 0
attr source txRF
attr title "sent remote frames, count"
scalar test.aktor[2].canNodePort.canPortOutput txDF:count 0
attr source txDF
attr title "sent data frames, count"
scalar test.aktor[2].canNodePort.canPortOutput rxEF:count 0
attr source rxEF
attr title "receive errors, count"
scalar test.aktor[2].bufferIn[0] rxPk:count 0
attr interpolationmode none
attr source rxPk
attr title "RX Packets, count"
scalar test.aktor[2].bufferIn[0] rxPk:sum(packetBytes) 0
attr interpolationmode none
attr source rxPk
attr title "RX Packets, sum(packetBytes)"
statistic test.aktor[2].bufferIn[0] size:stats
field count 0
field mean nan
field stddev nan
field min nan
field max nan
field sum 0
field sqrsum 0
attr interpolationmode sample-hold
attr source size
attr title "Queue Size, stats"
attr unit B
statistic test.aktor[2].bufferIn[0] length:stats
field count 0
field mean nan
field stddev nan
field min nan
field max nan
field sum 0
field sqrsum 0
attr interpolationmode sample-hold
attr source length
attr title "Queue Length, stats"
attr unit packets
scalar test.aktor[2].bufferIn[0] txPk:count 0
attr interpolationmode none
attr source txPk
attr title "TX Packets, count"
scalar test.aktor[2].bufferIn[0] txPk:sum(packetBytes) 0
attr interpolationmode none
attr source txPk
attr title "TX Packets, sum(packetBytes)"
scalar test.aktor[2].bufferOut rxPk:count 0
attr interpolationmode none
attr source rxPk
attr title "RX Packets, count"
scalar test.aktor[2].bufferOut rxPk:sum(packetBytes) 0
attr interpolationmode none
attr source rxPk
attr title "RX Packets, sum(packetBytes)"
statistic test.aktor[2].bufferOut size:stats
field count 0
field mean nan
field stddev nan
field min nan
field max nan
field sum 0
field sqrsum 0
attr interpolationmode sample-hold
attr source size
attr title "Queue Size, stats"
attr unit B
statistic test.aktor[2].bufferOut length:stats
field count 0
field mean nan
field stddev nan
field min nan
field max nan
field sum 0
field sqrsum 0
attr interpolationmode sample-hold
attr source length
attr title "Queue Length, stats"
attr unit packets
scalar test.aktor[2].bufferOut txPk:count 0
attr interpolationmode none
attr source txPk
attr title "TX Packets, count"
scalar test.aktor[2].bufferOut txPk:sum(packetBytes) 0
attr interpolationmode none
attr source txPk
attr title "TX Packets, sum(packetBytes)"
scalar test.aktor[2].sourceApp[0] txRF:count 0
attr source txRF
attr title "source app remote frame, count"
scalar test.aktor[2].sourceApp[0] txDF:count 0
attr source txDF
attr title "source app data frame, count"
statistic test.aktor[2].sinkApp[0] rxRFPayloadLatency:stats
field count 0
field mean nan
field stddev nan
field min nan
field max nan
field sum 0
field sqrsum 0
attr interpolationmode linear
attr source timestampAge(rxRFPayload)
attr title "End-to-end latency of remote frame payload, stats"
attr unit s
statistic test.aktor[2].sinkApp[0] rxRFPayloadLatency:histogram
field count 0
field mean nan
field stddev nan
field min nan
field max nan
field sum 0
field sqrsum 0
attr interpolationmode linear
attr source timestampAge(rxRFPayload)
attr title "End-to-end latency of remote frame payload, histogram"
attr unit s
bin	-inf	0
bin	0	0
bin	1	0
statistic test.aktor[2].sinkApp[0] rxDFPayloadLatency:stats
field count 0
field mean nan
field stddev nan
field min nan
field max nan
field sum 0
field sqrsum 0
attr interpolationmode linear
attr source timestampAge(rxDFPayload)
attr title "End-to-end latency of data frame payload, stats"
attr unit s
statistic test.aktor[2].sinkApp[0] rxDFPayloadLatency:histogram
field count 0
field mean nan
field stddev nan
field min nan
field max nan
field sum 0
field sqrsum 0
attr interpolationmode linear
attr source timestampAge(rxDFPayload)
attr title "End-to-end latency of data frame payload, histogram"
attr unit s
bin	-inf	0
bin	0	0
bin	1	0
scalar test.aktor[2].sinkApp[0] rxRF:count 0
attr source rxRF
attr title "sink app remote frame, count"
statistic test.aktor[2].sinkApp[0] rxRFLatency:stats
field count 0
field mean nan
field stddev nan
field min nan
field max nan
field sum 0
field sqrsum 0
attr interpolationmode linear
attr source timestampAge(rxRF)
attr title "End-to-end latency of remote frames, stats"
attr unit s
statistic test.aktor[2].sinkApp[0] rxRFLatency:histogram
field count 0
field mean nan
field stddev nan
field min nan
field max nan
field sum 0
field sqrsum 0
attr interpolationmode linear
attr source timestampAge(rxRF)
attr title "End-to-end latency of remote frames, histogram"
attr unit s
bin	-inf	0
bin	0	0
bin	1	0
scalar test.aktor[2].sinkApp[0] rxDF:count 0
attr source rxDF
attr title "sink app data frame, count"
statistic test.aktor[2].sinkApp[0] rxDFLatency:stats
field count 0
field mean nan
field stddev nan
field min nan
field max nan
field sum 0
field sqrsum 0
attr interpolationmode linear
attr source timestampAge(rxDF)
attr title "End-to-end latency of data frames, stats"
attr unit s
statistic test.aktor[2].sinkApp[0] rxDFLatency:histogram
field count 0
field mean nan
field stddev nan
field min nan
field max nan
field sum 0
field sqrsum 0
attr interpolationmode linear
attr source timestampAge(rxDF)
attr title "End-to-end latency of data frames, histogram"
attr unit s
bin	-inf	0
bin	0	0
bin	1	0
statistic test.aktor[2].canClock clockDrift:stats
field count 1
field mean 0
field stddev nan
field min 0
field max 0
field sum 0
field sqrsum 0
attr interpolationmode linear
attr source clockDrift
attr title "clockDrift, stats"
attr unit s
statistic test.aktor[2].canClock clockDrift:histogram
field count 1
field mean 0
field stddev nan
field min 0
field max 0
field sum 0
field sqrsum 0
attr interpolationmode linear
attr source clockDrift
attr title "clockDrift, histogram"
attr unit s
bin	-inf	0
bin	-0.5	0
bin	-0.48	0
bin	-0.46	0
bin	-0.44	0
bin	-0.42	0
bin	-0.4	0
bin	-0.38	0
bin	-0.36	0
bin	-0.34	0
[...]
scalar test.switch.phy[1].mac rxPausePkUnits:sum 0
attr interpolationmode none
attr title "pause units received, sum"
scalar test.switch.phy[1].mac txPausePkUnits:count 0
attr interpolationmode none
attr title "pause units sent, count"
scalar test.switch.phy[1].mac txPausePkUnits:sum 0
attr interpolationmode none
attr title "pause units sent, sum"
scalar test.switch.phy[1].mac txPk:count 2
attr interpolationmode none
attr source txPk
attr title "packets transmitted, count"
scalar test.switch.phy[1].mac txPk:sum(packetBytes) 136
attr interpolationmode none
attr source txPk
attr title "packets transmitted, sum(packetBytes)"
scalar test.switch.phy[1].mac droppedPkNotForUs:count 0
attr interpolationmode none
attr source dropPkNotForUs
attr title "packets dropped/not for us, count"
scalar test.switch.phy[1].mac droppedPkNotForUs:sum(packetBytes) 0
attr interpolationmode none
attr source dropPkNotForUs
attr title "packets dropped/not for us, sum(packetBytes)"
scalar test.switch.phy[1].mac droppedPkBitError:count 0
attr interpolationmode none
attr source dropPkBitError
attr title "packets dropped/bit error, count"
scalar test.switch.phy[1].mac droppedPkBitError:sum(packetBytes) 0
attr interpolationmode none
attr source dropPkBitError
attr title "packets dropped/bit error, sum(packetBytes)"
scalar test.switch.phy[1].mac droppedPkIfaceDown:count 0
attr interpolationmode none
attr source dropPkIfaceDown
attr title "packets dropped/interface down, count"
scalar test.switch.phy[1].mac droppedPkIfaceDown:sum(packetBytes) 0
attr interpolationmode none
attr source dropPkIfaceDown
attr title "packets dropped/interface down, sum(packetBytes)"
scalar test.switch.phy[1].mac rxPkOk:count 0
attr interpolationmode none
attr source rxPkOk
attr title "packets received OK, count"
scalar test.switch.phy[1].mac rxPkOk:sum(packetBytes) 0
attr interpolationmode none
attr source rxPkOk
attr title "packets received OK, sum(packetBytes)"
scalar test.switch.phy[1].mac passedUpPk:count 0
attr interpolationmode none
attr source packetSentToUpper
attr title "packets passed to higher layer, count"
scalar test.switch.phy[1].mac passedUpPk:sum(packetBytes) 0
attr interpolationmode none
attr source packetSentToUpper
attr title "packets passed to higher layer, sum(packetBytes)"
scalar test.switch.avbCTC dropped:count 0
attr source droppedPk
attr title "Packets Dropped, count"
scalar test.switch.avbCTC rxPk:count 0
attr source rxPk
attr title "Received Packets, count"
scalar test.switch.avbCTC rxBytes:sum(packetBytes) 0
attr interpolationmode none
attr source rxPk
attr title "Received Bytes, sum(packetBytes)"
attr unit B
statistic test.switch.avbCTC latency:stats
field count 0
field mean nan
field stddev nan
field min nan
field max nan
field sum 0
field sqrsum 0
attr interpolationmode none
attr source messageAge(rxPk)
attr title "End-to-end latency, stats"
attr unit s
statistic test.switch.avbCTC latency:histogram
field count 0
field mean nan
field stddev nan
field min nan
field max nan
field sum 0
field sqrsum 0
attr interpolationmode none
attr source messageAge(rxPk)
attr title "End-to-end latency, histogram"
attr unit s
bin	-inf	0
bin	0	0
bin	1	0
scalar test.switch.avbABuffer[0] dropped:count 0
attr source dropped
attr title "Dropped frames, count"
attr unit packets
scalar test.switch.avbABuffer[0] rxPk:count 0
attr source rxPk
attr title "Received Packets, count"
attr unit packets
scalar test.switch.avbABuffer[0] rxBytes:sum(packetBytes) 0
attr interpolationmode none
attr source rxPk
attr title "Received Bytes, sum(packetBytes)"
attr unit B
statistic test.switch.avbABuffer[0] rxBytes:histogram(packetBytes)
field count 0
field mean nan
field stddev nan
field min nan
field max nan
field sum 0
field sqrsum 0
attr interpolationmode none
attr source rxPk
attr title "Received Bytes, histogram(packetBytes)"
attr unit B
bin	-inf	0
bin	0	0
bin	1	0
statistic test.switch.avbABuffer[0] rxLatency:stats
field count 0
field mean nan
field stddev nan
field min nan
field max nan
field sum 0
field sqrsum 0
attr interpolationmode none
attr source messageAge(rxPk)
attr title "End-to-end latency (received), stats"
attr unit s
statistic test.switch.avbABuffer[0] rxLatency:histogram
field count 0
field mean nan
field stddev nan
field min nan
field max nan
field sum 0
field sqrsum 0
attr interpolationmode none
attr source messageAge(rxPk)
attr title "End-to-end latency (received), histogram"
attr unit s
bin	-inf	0
bin	0	0
bin	1	0
statistic test.switch.avbABuffer[0] size:stats
field count 0
field mean nan
field stddev nan
field min nan
field max nan
field sum 0
field sqrsum 0
attr interpolationmode sample-hold
attr source size
attr title "Queue Size, stats"
attr unit B
statistic test.switch.avbABuffer[0] length:stats
field count 0
field mean nan
field stddev nan
field min nan
field max nan
field sum 0
field sqrsum 0
attr interpolationmode sample-hold
attr source length
attr title "Queue Length, stats"
attr unit packets
scalar test.switch.avbABuffer[0] txPk:count 0
attr source txPk
attr title "Transmitted Packets, count"
attr unit packets
scalar test.switch.avbABuffer[0] txBytes:sum(packetBytes) 0
attr interpolationmode none
attr source txPk
attr title "Transmitted Bytes, sum(packetBytes)"
attr unit B
statistic test.switch.avbABuffer[0] txBytes:histogram(packetBytes)
field count 0
field mean nan
field stddev nan
field min nan
field max nan
field sum 0
field sqrsum 0
attr interpolationmode none
attr source txPk
attr title "Transmitted Bytes, histogram(packetBytes)"
attr unit B
bin	-inf	0
bin	0	0
bin	1	0
statistic test.switch.avbABuffer[0] txLatency:stats
field count 0
field mean nan
field stddev nan
field min nan
field max nan
field sum 0
field sqrsum 0
attr interpolationmode none
attr source messageAge(txPk)
attr title "End-to-end latency (transmitted), stats"
attr unit s
statistic test.switch.avbABuffer[0] txLatency:histogram
field count 0
field mean nan
field stddev nan
field min nan
field max nan
field sum 0
field sqrsum 0
attr interpolationmode none
attr source messageAge(txPk)
attr title "End-to-end latency (transmitted), histogram"
attr unit s
bin	-inf	0
bin	0	0
bin	1	0
scalar test.switch.avbABuffer[1] dropped:count 0
attr source dropped
attr title "Dropped frames, count"
attr unit packets
scalar test.switch.avbABuffer[1] rxPk:count 0
attr source rxPk
attr title "Received Packets, count"
attr unit packets
scalar test.switch.avbABuffer[1] rxBytes:sum(packetBytes) 0
attr interpolationmode none
attr source rxPk
attr title "Received Bytes, sum(packetBytes)"
attr unit B
statistic test.switch.avbABuffer[1] rxBytes:histogram(packetBytes)
field count 0
field mean nan
field stddev nan
field min nan
field max nan
field sum 0
field sqrsum 0
attr interpolationmode none
attr source rxPk
attr title "Received Bytes, histogram(packetBytes)"
attr unit B
bin	-inf	0
bin	0	0
bin	1	0
statistic test.switch.avbABuffer[1] rxLatency:stats
field count 0
field mean nan
field stddev nan
field min nan
field max nan
field sum 0
field sqrsum 0
attr interpolationmode none
attr source messageAge(rxPk)
attr title "End-to-end latency (received), stats"
attr unit s
statistic test.switch.avbABuffer[1] rxLatency:histogram
field count 0
field mean nan
field stddev nan
field min nan
field max nan
field sum 0
field sqrsum 0
attr interpolationmode none
attr source messageAge(rxPk)
attr title "End-to-end latency (received), histogram"
attr unit s
bin	-inf	0
bin	0	0
bin	1	0
statistic test.switch.avbABuffer[1] size:stats
field count 0
field mean nan
field stddev nan
field min nan
field max nan
field sum 0
field sqrsum 0
attr interpolationmode sample-hold
attr source size
attr title "Queue Size, stats"
attr unit B
statistic test.switch.avbABuffer[1] length:stats
field count 0
field mean nan
field stddev nan
field min nan
field max nan
field sum 0
field sqrsum 0
attr interpolationmode sample-hold
attr source length
attr title "Queue Length, stats"
attr unit packets
scalar test.switch.avbABuffer[1] txPk:count 0
attr source txPk
attr title "Transmitted Packets, count"
attr unit packets
scalar test.switch.avbABuffer[1] txBytes:sum(packetBytes) 0
attr interpolationmode none
attr source txPk
attr title "Transmitted Bytes, sum(packetBytes)"
attr unit B
statistic test.switch.avbABuffer[1] txBytes:histogram(packetBytes)
field count 0
field mean nan
field stddev nan
field min nan
field max nan
field sum 0
field sqrsum 0
attr interpolationmode none
attr source txPk
attr title "Transmitted Bytes, histogram(packetBytes)"
attr unit B
bin	-inf	0
bin	0	0
bin	1	0
statistic test.switch.avbABuffer[1] txLatency:stats
field count 0
field mean nan
field stddev nan
field min nan
field max nan
field sum 0
field sqrsum 0
attr interpolationmode none
attr source messageAge(txPk)
attr title "End-to-end latency (transmitted), stats"
attr unit s
statistic test.switch.avbABuffer[1] txLatency:histogram
field count 0
field mean nan
field stddev nan
field min nan
field max nan
field sum 0
field sqrsum 0
attr interpolationmode none
attr source messageAge(txPk)
attr title "End-to-end latency (transmitted), histogram"
attr unit s
bin	-inf	0
bin	0	0
bin	1	0
scalar test.switch.avbBBuffer[0] dropped:count 0
attr source dropped
attr title "Dropped frames, count"
attr unit packets
scalar test.switch.avbBBuffer[0] rxPk:count 0
attr source rxPk
attr title "Received Packets, count"
attr unit packets
scalar test.switch.avbBBuffer[0] rxBytes:sum(packetBytes) 0
attr interpolationmode none
attr source rxPk
attr title "Received Bytes, sum(packetBytes)"
attr unit B
statistic test.switch.avbBBuffer[0] rxBytes:histogram(packetBytes)
field count 0
field mean nan
field stddev nan
field min nan
field max nan
field sum 0
field sqrsum 0
attr interpolationmode none
attr source rxPk
attr title "Received Bytes, histogram(packetBytes)"
attr unit B
bin	-inf	0
bin	0	0
bin	1	0
statistic test.switch.avbBBuffer[0] rxLatency:stats
field count 0
field mean nan
field stddev nan
field min nan
field max nan
field sum 0
field sqrsum 0
attr interpolationmode none
attr source messageAge(rxPk)
attr title "End-to-end latency (received), stats"
attr unit s
statistic test.switch.avbBBuffer[0] rxLatency:histogram
field count 0
field mean nan
field stddev nan
field min nan
field max nan
field sum 0
field sqrsum 0
attr interpolationmode none
attr source messageAge(rxPk)
attr title "End-to-end latency (received), histogram"
attr unit s
bin	-inf	0
bin	0	0
bin	1	0
statistic test.switch.avbBBuffer[0] size:stats
field count 0
field mean nan
field stddev nan
field min nan
field max nan
field sum 0
field sqrsum 0
attr interpolationmode sample-hold
attr source size
attr title "Queue Size, stats"
attr unit B
statistic test.switch.avbBBuffer[0] length:stats
field count 0
field mean nan
field stddev nan
field min nan
field max nan
field sum 0
field sqrsum 0
attr interpolationmode sample-hold
attr source length
attr title "Queue Length, stats"
attr unit packets
scalar test.switch.avbBBuffer[0] txPk:count 0
attr source txPk
attr title "Transmitted Packets, count"
attr unit packets
scalar test.switch.avbBBuffer[0] txBytes:sum(packetBytes) 0
attr interpolationmode none
attr source txPk
attr title "Transmitted Bytes, sum(packetBytes)"
attr unit B
statistic test.switch.avbBBuffer[0] txBytes:histogram(packetBytes)
field count 0
field mean nan
field stddev nan
field min nan
field max nan
field sum 0
field sqrsum 0
attr interpolationmode none
attr source txPk
attr title "Transmitted Bytes, histogram(packetBytes)"
attr unit B
bin	-inf	0
bin	0	0
bin	1	0
statistic test.switch.avbBBuffer[0] txLatency:stats
field count 0
field mean nan
field stddev nan
field min nan
field max nan
field sum 0
field sqrsum 0
attr interpolationmode none
attr source messageAge(txPk)
attr title "End-to-end latency (transmitted), stats"
attr unit s
statistic test.switch.avbBBuffer[0] txLatency:histogram
field count 0
field mean nan
field stddev nan
field min nan
field max nan
field sum 0
field sqrsum 0
attr interpolationmode none
attr source messageAge(txPk)
attr title "End-to-end latency (transmitted), histogram"
attr unit s
bin	-inf	0
bin	0	0
bin	1	0
scalar test.switch.avbBBuffer[1] dropped:count 0
attr source dropped
attr title "Dropped frames, count"
attr unit packets
scalar test.switch.avbBBuffer[1] rxPk:count 0
attr source rxPk
attr title "Received Packets, count"
attr unit packets
scalar test.switch.avbBBuffer[1] rxBytes:sum(packetBytes) 0
attr interpolationmode none
attr source rxPk
attr title "Received Bytes, sum(packetBytes)"
attr unit B
statistic test.switch.avbBBuffer[1] rxBytes:histogram(packetBytes)
field count 0
field mean nan
field stddev nan
field min nan
field max nan
field sum 0
field sqrsum 0
attr interpolationmode none
attr source rxPk
attr title "Received Bytes, histogram(packetBytes)"
attr unit B
bin	-inf	0
bin	0	0
bin	1	0
statistic test.switch.avbBBuffer[1] rxLatency:stats
field count 0
field mean nan
field stddev nan
field min nan
field max nan
field sum 0
field sqrsum 0
attr interpolationmode none
attr source messageAge(rxPk)
attr title "End-to-end latency (received), stats"
attr unit s
statistic test.switch.avbBBuffer[1] rxLatency:histogram
field count 0
field mean nan
field stddev nan
field min nan
field max nan
field sum 0
field sqrsum 0
attr interpolationmode none
attr source messageAge(rxPk)
attr title "End-to-end latency (received), histogram"
attr unit s
bin	-inf	0
bin	0	0
bin	1	0
statistic test.switch.avbBBuffer[1] size:stats
field count 0
field mean nan
field stddev nan
field min nan
field max nan
field sum 0
field sqrsum 0
attr interpolationmode sample-hold
attr source size
attr title "Queue Size, stats"
attr unit B
statistic test.switch.avbBBuffer[1] length:stats
field count 0
field mean nan
field stddev nan
field min nan
field max nan
field sum 0
field sqrsum 0
attr interpolationmode sample-hold
attr source length
attr title "Queue Length, stats"
attr unit packets
scalar test.switch.avbBBuffer[1] txPk:count 0
attr source txPk
attr title "Transmitted Packets, count"
attr unit packets
scalar test.switch.avbBBuffer[1] txBytes:sum(packetBytes) 0
attr interpolationmode none
attr source txPk
attr title "Transmitted Bytes, sum(packetBytes)"
attr unit B
statistic test.switch.avbBBuffer[1] txBytes:histogram(packetBytes)
field count 0
field mean nan
field stddev nan
field min nan
field max nan
field sum 0
field sqrsum 0
attr interpolationmode none
attr source txPk
attr title "Transmitted Bytes, histogram(packetBytes)"
attr unit B
bin	-inf	0
bin	0	0
bin	1	0
statistic test.switch.avbBBuffer[1] txLatency:stats
field count 0
field mean nan
field stddev nan
field min nan
field max nan
field sum 0
field sqrsum 0
attr interpolationmode none
attr source messageAge(txPk)
attr title "End-to-end latency (transmitted), stats"
attr unit s
statistic test.switch.avbBBuffer[1] txLatency:histogram
field count 0
field mean nan
field stddev nan
field min nan
field max nan
field sum 0
field sqrsum 0
attr interpolationmode none
attr source messageAge(txPk)
attr title "End-to-end latency (transmitted), histogram"
attr unit s
bin	-inf	0
bin	0	0
bin	1	0
scalar test.switch.scheduler.period[0] numberOfCycles:count 1
attr interpolationmode none
attr source newCycle
attr title "Number of cycle, count"
scalar test.switch.scheduler.period[1] numberOfCycles:count 1
attr interpolationmode none
attr source newCycle
attr title "Number of cycle, count"
scalar test.switch.TTvlinks[0] dropped:count 0
attr source dropped
attr title "Dropped frames, count"
attr unit packets
scalar test.switch.TTvlinks[0] rxPk:count 0
attr source rxPk
attr title "Received Packets, count"
attr unit packets
scalar test.switch.TTvlinks[0] rxBytes:sum(packetBytes) 0
attr interpolationmode none
attr source rxPk
attr title "Received Bytes, sum(packetBytes)"
attr unit B
statistic test.switch.TTvlinks[0] rxBytes:histogram(packetBytes)
field count 0
field mean nan
field stddev nan
field min nan
field max nan
field sum 0
field sqrsum 0
attr interpolationmode none
attr source rxPk
attr title "Received Bytes, histogram(packetBytes)"
attr unit B
bin	-inf	0
bin	0	0
bin	1	0
statistic test.switch.TTvlinks[0] rxLatency:stats
field count 0
field mean nan
field stddev nan
field min nan
field max nan
field sum 0
field sqrsum 0
attr interpolationmode none
attr source messageAge(rxPk)
attr title "End-to-end latency (received), stats"
attr unit s
statistic test.switch.TTvlinks[0] rxLatency:histogram
field count 0
field mean nan
field stddev nan
field min nan
field max nan
field sum 0
field sqrsum 0
attr interpolationmode none
attr source messageAge(rxPk)
attr title "End-to-end latency (received), histogram"
attr unit s
bin	-inf	0
bin	0	0
bin	1	0
statistic test.switch.TTvlinks[0] size:stats
field count 0
field mean nan
field stddev nan
field min nan
field max nan
field sum 0
field sqrsum 0
attr interpolationmode sample-hold
attr source size
attr title "Queue Size, stats"
attr unit B
statistic test.switch.TTvlinks[0] length:stats
field count 0
field mean nan
field stddev nan
field min nan
field max nan
field sum 0
field sqrsum 0
attr interpolationmode sample-hold
attr source length
attr title "Queue Length, stats"
attr unit packets
scalar test.switch.TTvlinks[0] txPk:count 0
attr source txPk
attr title "Transmitted Packets, count"
attr unit packets
scalar test.switch.TTvlinks[0] txBytes:sum(packetBytes) 0
attr interpolationmode none
attr source txPk
attr title "Transmitted Bytes, sum(packetBytes)"
attr unit B
statistic test.switch.TTvlinks[0] txBytes:histogram(packetBytes)
field count 0
field mean nan
field stddev nan
field min nan
field max nan
field sum 0
field sqrsum 0
attr interpolationmode none
attr source txPk
attr title "Transmitted Bytes, histogram(packetBytes)"
attr unit B
bin	-inf	0
bin	0	0
bin	1	0
statistic test.switch.TTvlinks[0] txLatency:stats
field count 0
field mean nan
field stddev nan
field min nan
field max nan
field sum 0
field sqrsum 0
attr interpolationmode none
attr source messageAge(txPk)
attr title "End-to-end latency (transmitted), stats"
attr unit s
statistic test.switch.TTvlinks[0] txLatency:histogram
field count 0
field mean nan
field stddev nan
field min nan
field max nan
field sum 0
field sqrsum 0
attr interpolationmode none
attr source messageAge(txPk)
attr title "End-to-end latency (transmitted), histogram"
attr unit s
bin	-inf	0
bin	0	0
bin	1	0
scalar test.switch.TTvlinks_ctc[0] dropped:count 0
attr source droppedPk
attr title "Packets Dropped, count"
scalar test.switch.TTvlinks_ctc[0] rxPk:count 0
attr source rxPk
attr title "Received Packets, count"
scalar test.switch.TTvlinks_ctc[0] rxBytes:sum(packetBytes) 0
attr interpolationmode none
attr source rxPk
attr title "Received Bytes, sum(packetBytes)"
attr unit B
statistic test.switch.TTvlinks_ctc[0] latency:stats
field count 0
field mean nan
field stddev nan
field min nan
field max nan
field sum 0
field sqrsum 0
attr interpolationmode none
attr source messageAge(rxPk)
attr title "End-to-end latency, stats"
attr unit s
statistic test.switch.TTvlinks_ctc[0] latency:histogram
field count 0
field mean nan
field stddev nan
field min nan
field max nan
field sum 0
field sqrsum 0
attr interpolationmode none
attr source messageAge(rxPk)
attr title "End-to-end latency, histogram"
attr unit s
bin	-inf	0
bin	0	0
bin	1	0

